5514 SD file.sdf
  ChemDraw07122213082D

 29 30  0  0  1  0  0  0  0  0999 V2000
   -4.2863    0.4125    0.0000 C   0  0  0  0  0  0  0  0  0  0  0  0
   -4.2863   -0.4125    0.0000 C   0  0  0  0  0  0  0  0  0  0  0  0
   -3.5718   -0.8250    0.0000 C   0  0  0  0  0  0  0  0  0  0  0  0
   -2.8574   -0.4125    0.0000 C   0  0  0  0  0  0  0  0  0  0  0  0
   -2.8574    0.4125    0.0000 C   0  0  0  0  0  0  0  0  0  0  0  0
   -3.5718    0.8250    0.0000 C   0  0  0  0  0  0  0  0  0  0  0  0
   -2.1430   -0.8250    0.0000 C   0  0  0  0  0  0  0  0  0  0  0  0
   -1.4286   -0.4125    0.0000 C   0  0  0  0  0  0  0  0  0  0  0  0
   -2.1430   -1.6500    0.0000 O   0  0  0  0  0  0  0  0  0  0  0  0
   -0.7141   -0.8250    0.0000 O   0  0  0  0  0  0  0  0  0  0  0  0
    0.0003   -0.4125    0.0000 C   0  0  0  0  0  0  0  0  0  0  0  0
    0.7147   -0.8250    0.0000 C   0  0  0  0  0  0  0  0  0  0  0  0
    1.4291   -0.4125    0.0000 C   0  0  0  0  0  0  0  0  0  0  0  0
    1.4291    0.4125    0.0000 C   0  0  0  0  0  0  0  0  0  0  0  0
    0.7147    0.8250    0.0000 C   0  0  0  0  0  0  0  0  0  0  0  0
    0.0003    0.4125    0.0000 C   0  0  0  0  0  0  0  0  0  0  0  0
    2.1436    0.8250    0.0000 C   0  0  0  0  0  0  0  0  0  0  0  0
    2.8574    0.4125    0.0000 C   0  0  0  0  0  0  0  0  0  0  0  0
    3.5718    0.8250    0.0000 C   0  0  0  0  0  0  0  0  0  0  0  0
    4.2863    0.4125    0.0000 N   0  0  0  0  0  0  0  0  0  0  0  0
    3.5718    1.6500    0.0000 O   0  0  0  0  0  0  0  0  0  0  0  0
    4.2863   -0.4125    0.0000 C   0  0  0  0  0  0  0  0  0  0  0  0
    2.8574   -0.4125    0.0000 O   0  0  0  0  0  0  0  0  0  0  0  0
    2.1436   -0.8250    0.0000 C   0  0  0  0  0  0  0  0  0  0  0  0
    2.1436   -1.6500    0.0000 C   0  0  0  0  0  0  0  0  0  0  0  0
   -5.0007   -0.8250    0.0000 O   0  0  0  0  0  0  0  0  0  0  0  0
   -5.0007   -1.6471    0.0000 C   0  0  0  0  0  0  0  0  0  0  0  0
    5.0007    0.8250    0.0000 O   0  0  0  0  0  0  0  0  0  0  0  0
    5.0007    1.6471    0.0000 C   0  0  0  0  0  0  0  0  0  0  0  0
 26 27  1  0      
  2 26  1  0      
 28 29  1  0      
 20 28  1  0      
  1  2  2  0      
  2  3  1  0      
  3  4  2  0      
  4  5  1  0      
  5  6  2  0      
  6  1  1  0      
  4  7  1  0      
  7  8  1  0      
  7  9  2  0      
  8 10  1  0      
 10 11  1  0      
 11 12  2  0      
 12 13  1  0      
 13 14  2  0      
 14 15  1  0      
 15 16  2  0      
 16 11  1  0      
 14 17  1  0      
 17 18  1  0      
 18 19  1  0      
 19 20  1  0      
 19 21  2  0      
 20 22  1  0      
 18 23  1  1      
 23 24  1  0      
 24 25  1  0      
M  STY  1   1 SUP
M  SLB  1   1   1
M  SAL   1  2  26  27
M  SBL   1  1   2
M  SMT   1 OCH3
M  SBV   1   2    0.7144    0.4125
M  STY  1   2 SUP
M  SLB  1   2   2
M  SAL   2  2  28  29
M  SBL   2  1   4
M  SMT   2 OCH3
M  SBV   2   4   -0.7144   -0.4125
M  END
$$$$
