
     RDKit          3D

 29 30  0  2  0  0  0  0  0  0999 V2000
   19.3007    4.5430    5.8495 C   0  0  0  0  0  0  0  0  0  0  0  0
   19.9274    3.4190    5.3683 C   0  0  0  0  0  0  0  0  0  0  0  0
   19.7695    3.0592    4.0560 C   0  0  0  0  0  0  0  0  0  0  0  0
   18.9869    3.7878    3.1514 C   0  0  0  0  0  0  0  0  0  0  0  0
   18.3833    4.8993    3.6794 C   0  0  0  0  0  0  0  0  0  0  0  0
   18.5235    5.2932    5.0110 C   0  0  0  0  0  0  0  0  0  0  0  0
   18.8751    3.3356    1.7821 C   0  0  0  0  0  0  0  0  0  0  0  0
   18.5599    4.1129    0.5897 C   0  0  0  0  0  0  0  0  0  0  0  0
   19.0765    2.0772    1.5545 O   0  0  0  0  0  0  0  0  0  0  0  0
   17.2622    4.5602    0.4349 O   0  0  0  0  0  0  0  0  0  0  0  0
   16.9340    5.2965   -0.7096 C   0  0  0  0  0  0  0  0  0  0  0  0
   17.4797    5.0139   -1.9247 C   0  0  0  0  0  0  0  0  0  0  0  0
   17.1385    5.7554   -3.0348 C   0  0  0  0  0  0  0  0  0  0  0  0
   16.2482    6.8027   -2.9940 C   0  0  0  0  0  0  0  0  0  0  0  0
   15.6969    7.0870   -1.7621 C   0  0  0  0  0  0  0  0  0  0  0  0
   16.0284    6.3501   -0.6289 C   0  0  0  0  0  0  0  0  0  0  0  0
   15.9118    7.5605   -4.1894 C   0  0  0  0  0  0  0  0  0  0  0  0
   17.0670    8.2077   -4.9026 C   0  0  1  0  0  0  0  0  0  0  0  0
   16.9539    8.2131   -6.3690 C   0  0  0  0  0  0  0  0  0  0  0  0
   17.5422    9.2490   -7.1209 N   0  0  0  0  0  0  0  0  0  0  0  0
   16.3400    7.3078   -6.9691 O   0  0  0  0  0  0  0  0  0  0  0  0
   17.1295    9.5245   -8.4873 C   0  0  0  0  0  0  0  0  0  0  0  0
   17.3955    9.4510   -4.3828 O   0  0  0  0  0  0  0  0  0  0  0  0
   16.3601   10.1066   -3.7777 C   0  0  0  0  0  0  0  0  0  0  0  0
   16.2421    9.5881   -2.3589 C   0  0  0  0  0  0  0  0  0  0  0  0
   20.7317    2.6131    6.1703 O   0  0  0  0  0  0  0  0  0  0  0  0
   21.7646    1.8093    5.6785 C   0  0  0  0  0  0  0  0  0  0  0  0
   18.5173   10.0004   -6.5419 O   0  0  0  0  0  0  0  0  0  0  0  0
   17.9983   10.8759   -5.5979 C   0  0  0  0  0  0  0  0  0  0  0  0
 26 27  1  0
  2 26  1  0
 28 29  1  0
 20 28  1  0
  1  2  2  0
  2  3  1  0
  3  4  2  0
  4  5  1  0
  5  6  2  0
  6  1  1  0
  4  7  1  0
  7  8  1  0
  7  9  2  0
  8 10  1  0
 10 11  1  0
 11 12  2  0
 12 13  1  0
 13 14  2  0
 14 15  1  0
 15 16  2  0
 16 11  1  0
 14 17  1  0
 18 17  1  1
 18 19  1  0
 19 20  1  0
 19 21  2  0
 20 22  1  0
 18 23  1  0
 23 24  1  0
 24 25  1  0
M  STY  2   1 SUP   2 SUP
M  SLB  2   1   1   2   2
M  SAL   1  2  26  27
M  SBL   1  1   2
M  SMT   1 OCH3
M  SBV   1   2    0.7144    0.4125
M  SAL   2  2  28  29
M  SBL   2  1   4
M  SMT   2 OCH3
M  SBV   2   4   -0.7144   -0.4125
M  END
$$$$
