
     RDKit          3D

 29 30  0  2  0  0  0  0  0  0999 V2000
   17.4246    9.3794   -7.3348 C   0  0  0  0  0  0  0  0  0  0  0  0
   16.2576    8.7248   -7.0227 C   0  0  0  0  0  0  0  0  0  0  0  0
   16.1159    8.1305   -5.7968 C   0  0  0  0  0  0  0  0  0  0  0  0
   17.1158    8.1505   -4.8163 C   0  0  0  0  0  0  0  0  0  0  0  0
   18.2595    8.8151   -5.1755 C   0  0  0  0  0  0  0  0  0  0  0  0
   18.4357    9.4309   -6.4155 C   0  0  0  0  0  0  0  0  0  0  0  0
   16.8817    7.4964   -3.5477 C   0  0  0  0  0  0  0  0  0  0  0  0
   17.8108    6.7132   -2.7423 C   0  0  0  0  0  0  0  0  0  0  0  0
   15.6981    7.6036   -3.0343 O   0  0  0  0  0  0  0  0  0  0  0  0
   17.3195    6.0931   -1.6098 O   0  0  0  0  0  0  0  0  0  0  0  0
   18.2072    5.7767   -0.5747 C   0  0  0  0  0  0  0  0  0  0  0  0
   18.9610    4.6430   -0.5981 C   0  0  0  0  0  0  0  0  0  0  0  0
   19.8268    4.3564    0.4347 C   0  0  0  0  0  0  0  0  0  0  0  0
   19.9854    5.1725    1.5302 C   0  0  0  0  0  0  0  0  0  0  0  0
   19.2208    6.3202    1.5517 C   0  0  0  0  0  0  0  0  0  0  0  0
   18.3405    6.6277    0.5185 C   0  0  0  0  0  0  0  0  0  0  0  0
   20.9123    4.8362    2.5999 C   0  0  0  0  0  0  0  0  0  0  0  0
   20.2891    4.3450    3.8776 C   0  0  1  0  0  0  0  0  0  0  0  0
   19.3818    3.1992    3.7137 C   0  0  0  0  0  0  0  0  0  0  0  0
   18.1403    3.1781    4.3790 N   0  0  0  0  0  0  0  0  0  0  0  0
   19.6923    2.2327    2.9883 O   0  0  0  0  0  0  0  0  0  0  0  0
   17.3595    1.9570    4.4915 C   0  0  0  0  0  0  0  0  0  0  0  0
   21.2145    4.1586    4.8939 O   0  0  0  0  0  0  0  0  0  0  0  0
   20.6692    3.8863    6.1173 C   0  0  0  0  0  0  0  0  0  0  0  0
   20.2773    5.2017    6.7591 C   0  0  0  0  0  0  0  0  0  0  0  0
   15.1912    8.6367   -7.9142 O   0  0  0  0  0  0  0  0  0  0  0  0
   14.0365    7.8854   -7.6749 C   0  0  0  0  0  0  0  0  0  0  0  0
   17.6742    4.3342    4.9238 O   0  0  0  0  0  0  0  0  0  0  0  0
   16.6421    4.8770    4.1706 C   0  0  0  0  0  0  0  0  0  0  0  0
 26 27  1  0
  2 26  1  0
 28 29  1  0
 20 28  1  0
  1  2  2  0
  2  3  1  0
  3  4  2  0
  4  5  1  0
  5  6  2  0
  6  1  1  0
  4  7  1  0
  7  8  1  0
  7  9  2  0
  8 10  1  0
 10 11  1  0
 11 12  2  0
 12 13  1  0
 13 14  2  0
 14 15  1  0
 15 16  2  0
 16 11  1  0
 14 17  1  0
 18 17  1  6
 18 19  1  0
 19 20  1  0
 19 21  2  0
 20 22  1  0
 18 23  1  0
 23 24  1  0
 24 25  1  0
M  STY  2   1 SUP   2 SUP
M  SLB  2   1   1   2   2
M  SAL   1  2  26  27
M  SBL   1  1   2
M  SMT   1 OCH3
M  SBV   1   2    0.7144    0.4125
M  SAL   2  2  28  29
M  SBL   2  1   4
M  SMT   2 OCH3
M  SBV   2   4   -0.7144   -0.4125
M  END
$$$$
