
     RDKit          3D

 29 30  0  2  0  0  0  0  0  0999 V2000
   19.9383    5.1272    4.7566 C   0  0  0  0  0  0  0  0  0  0  0  0
   19.5641    3.9451    4.1647 C   0  0  0  0  0  0  0  0  0  0  0  0
   19.2534    3.9186    2.8309 C   0  0  0  0  0  0  0  0  0  0  0  0
   19.2954    5.0545    2.0125 C   0  0  0  0  0  0  0  0  0  0  0  0
   19.6741    6.2076    2.6494 C   0  0  0  0  0  0  0  0  0  0  0  0
   19.9969    6.2685    4.0058 C   0  0  0  0  0  0  0  0  0  0  0  0
   18.9510    4.9363    0.6128 C   0  0  0  0  0  0  0  0  0  0  0  0
   18.3971    5.9495   -0.2770 C   0  0  0  0  0  0  0  0  0  0  0  0
   19.1503    3.7888    0.0476 O   0  0  0  0  0  0  0  0  0  0  0  0
   18.1105    5.5802   -1.5770 O   0  0  0  0  0  0  0  0  0  0  0  0
   17.6866    6.5625   -2.4798 C   0  0  0  0  0  0  0  0  0  0  0  0
   16.3886    6.9697   -2.5388 C   0  0  0  0  0  0  0  0  0  0  0  0
   15.9990    7.9387   -3.4376 C   0  0  0  0  0  0  0  0  0  0  0  0
   16.8695    8.5448   -4.3128 C   0  0  0  0  0  0  0  0  0  0  0  0
   18.1836    8.1306   -4.2513 C   0  0  0  0  0  0  0  0  0  0  0  0
   18.5972    7.1534   -3.3507 C   0  0  0  0  0  0  0  0  0  0  0  0
   16.4197    9.5664   -5.2459 C   0  0  0  0  0  0  0  0  0  0  0  0
   15.8236    9.0636   -6.5320 C   0  0  1  0  0  0  0  0  0  0  0  0
   15.6011   10.1021   -7.5493 C   0  0  0  0  0  0  0  0  0  0  0  0
   14.4713   10.9399   -7.4707 N   0  0  0  0  0  0  0  0  0  0  0  0
   16.4022   10.2590   -8.4929 O   0  0  0  0  0  0  0  0  0  0  0  0
   14.2675   12.0302   -8.4105 C   0  0  0  0  0  0  0  0  0  0  0  0
   16.4808    7.9498   -7.0336 O   0  0  0  0  0  0  0  0  0  0  0  0
   16.0837    7.5703   -8.2852 C   0  0  0  0  0  0  0  0  0  0  0  0
   17.2684    7.7190   -9.2181 C   0  0  0  0  0  0  0  0  0  0  0  0
   19.4848    2.7489    4.8737 O   0  0  0  0  0  0  0  0  0  0  0  0
   19.8021    2.6253    6.2298 C   0  0  0  0  0  0  0  0  0  0  0  0
   13.5589   10.7115   -6.4879 O   0  0  0  0  0  0  0  0  0  0  0  0
   12.3130   11.2297   -6.8136 C   0  0  0  0  0  0  0  0  0  0  0  0
 26 27  1  0
  2 26  1  0
 28 29  1  0
 20 28  1  0
  1  2  2  0
  2  3  1  0
  3  4  2  0
  4  5  1  0
  5  6  2  0
  6  1  1  0
  4  7  1  0
  7  8  1  0
  7  9  2  0
  8 10  1  0
 10 11  1  0
 11 12  2  0
 12 13  1  0
 13 14  2  0
 14 15  1  0
 15 16  2  0
 16 11  1  0
 14 17  1  0
 18 17  1  1
 18 19  1  0
 19 20  1  0
 19 21  2  0
 20 22  1  0
 18 23  1  0
 23 24  1  0
 24 25  1  0
M  STY  2   1 SUP   2 SUP
M  SLB  2   1   1   2   2
M  SAL   1  2  26  27
M  SBL   1  1   2
M  SMT   1 OCH3
M  SBV   1   2    0.7144    0.4125
M  SAL   2  2  28  29
M  SBL   2  1   4
M  SMT   2 OCH3
M  SBV   2   4   -0.7144   -0.4125
M  END
$$$$
