
     RDKit          3D

 29 30  0  2  0  0  0  0  0  0999 V2000
   19.0725    7.4712   -5.3274 C   0  0  0  0  0  0  0  0  0  0  0  0
   17.9952    6.6408   -5.1337 C   0  0  0  0  0  0  0  0  0  0  0  0
   17.4959    6.4546   -3.8718 C   0  0  0  0  0  0  0  0  0  0  0  0
   18.0320    7.0765   -2.7371 C   0  0  0  0  0  0  0  0  0  0  0  0
   19.1043    7.8941   -2.9827 C   0  0  0  0  0  0  0  0  0  0  0  0
   19.6369    8.1052   -4.2553 C   0  0  0  0  0  0  0  0  0  0  0  0
   17.4419    6.8232   -1.4411 C   0  0  0  0  0  0  0  0  0  0  0  0
   17.2355    7.7531   -0.3375 C   0  0  0  0  0  0  0  0  0  0  0  0
   17.0331    5.6186   -1.2005 O   0  0  0  0  0  0  0  0  0  0  0  0
   16.0047    7.7478    0.2897 O   0  0  0  0  0  0  0  0  0  0  0  0
   15.1405    8.8307    0.0895 C   0  0  0  0  0  0  0  0  0  0  0  0
   13.8456    8.6535   -0.2928 C   0  0  0  0  0  0  0  0  0  0  0  0
   13.0170    9.7379   -0.4826 C   0  0  0  0  0  0  0  0  0  0  0  0
   13.4285   11.0379   -0.3042 C   0  0  0  0  0  0  0  0  0  0  0  0
   14.7404   11.2149    0.0829 C   0  0  0  0  0  0  0  0  0  0  0  0
   15.5933   10.1329    0.2799 C   0  0  0  0  0  0  0  0  0  0  0  0
   12.5221   12.1567   -0.5125 C   0  0  0  0  0  0  0  0  0  0  0  0
   11.9156   12.7497    0.7295 C   0  0  1  0  0  0  0  0  0  0  0  0
   11.2492   14.0448    0.5255 C   0  0  0  0  0  0  0  0  0  0  0  0
   11.9043   15.0754   -0.1769 N   0  0  0  0  0  0  0  0  0  0  0  0
   10.1010   14.2529    0.9670 O   0  0  0  0  0  0  0  0  0  0  0  0
   11.2644   16.3592   -0.4132 C   0  0  0  0  0  0  0  0  0  0  0  0
   11.1336   11.8462    1.4340 O   0  0  0  0  0  0  0  0  0  0  0  0
   10.5953   12.3393    2.5895 C   0  0  0  0  0  0  0  0  0  0  0  0
   11.7314   12.6311    3.5487 C   0  0  0  0  0  0  0  0  0  0  0  0
   17.3757    5.9665   -6.1831 O   0  0  0  0  0  0  0  0  0  0  0  0
   16.3367    5.0467   -6.0119 C   0  0  0  0  0  0  0  0  0  0  0  0
   13.1640   14.8498   -0.6383 O   0  0  0  0  0  0  0  0  0  0  0  0
   13.1996   14.7898   -2.0248 C   0  0  0  0  0  0  0  0  0  0  0  0
 26 27  1  0
  2 26  1  0
 28 29  1  0
 20 28  1  0
  1  2  2  0
  2  3  1  0
  3  4  2  0
  4  5  1  0
  5  6  2  0
  6  1  1  0
  4  7  1  0
  7  8  1  0
  7  9  2  0
  8 10  1  0
 10 11  1  0
 11 12  2  0
 12 13  1  0
 13 14  2  0
 14 15  1  0
 15 16  2  0
 16 11  1  0
 14 17  1  0
 18 17  1  6
 18 19  1  0
 19 20  1  0
 19 21  2  0
 20 22  1  0
 18 23  1  0
 23 24  1  0
 24 25  1  0
M  STY  2   1 SUP   2 SUP
M  SLB  2   1   1   2   2
M  SAL   1  2  26  27
M  SBL   1  1   2
M  SMT   1 OCH3
M  SBV   1   2    0.7144    0.4125
M  SAL   2  2  28  29
M  SBL   2  1   4
M  SMT   2 OCH3
M  SBV   2   4   -0.7144   -0.4125
M  END
$$$$
