
     RDKit          3D

 29 30  0  2  0  0  0  0  0  0999 V2000
   17.0794   10.7129  -12.7547 C   0  0  0  0  0  0  0  0  0  0  0  0
   16.4986    9.4684  -12.7944 C   0  0  0  0  0  0  0  0  0  0  0  0
   16.3432    8.7511  -11.6379 C   0  0  0  0  0  0  0  0  0  0  0  0
   16.7517    9.2227  -10.3839 C   0  0  0  0  0  0  0  0  0  0  0  0
   17.3247   10.4677  -10.3972 C   0  0  0  0  0  0  0  0  0  0  0  0
   17.4976   11.2241  -11.5573 C   0  0  0  0  0  0  0  0  0  0  0  0
   16.5490    8.3983   -9.2129 C   0  0  0  0  0  0  0  0  0  0  0  0
   17.3703    8.3052   -8.0120 C   0  0  0  0  0  0  0  0  0  0  0  0
   15.5073    7.6298   -9.2014 O   0  0  0  0  0  0  0  0  0  0  0  0
   17.2221    7.1878   -7.2135 O   0  0  0  0  0  0  0  0  0  0  0  0
   17.1120    7.3579   -5.8283 C   0  0  0  0  0  0  0  0  0  0  0  0
   17.9792    8.1430   -5.1313 C   0  0  0  0  0  0  0  0  0  0  0  0
   17.8472    8.2925   -3.7679 C   0  0  0  0  0  0  0  0  0  0  0  0
   16.8584    7.6766   -3.0370 C   0  0  0  0  0  0  0  0  0  0  0  0
   15.9814    6.8820   -3.7452 C   0  0  0  0  0  0  0  0  0  0  0  0
   16.0976    6.7180   -5.1224 C   0  0  0  0  0  0  0  0  0  0  0  0
   16.7508    7.8615   -1.5980 C   0  0  0  0  0  0  0  0  0  0  0  0
   15.8419    8.9710   -1.1452 C   0  0  1  0  0  0  0  0  0  0  0  0
   14.6863    8.5281   -0.3505 C   0  0  0  0  0  0  0  0  0  0  0  0
   14.7917    8.4135    1.0496 N   0  0  0  0  0  0  0  0  0  0  0  0
   13.6004    8.2480   -0.8972 O   0  0  0  0  0  0  0  0  0  0  0  0
   13.6148    8.4201    1.9029 C   0  0  0  0  0  0  0  0  0  0  0  0
   16.5263   10.0258   -0.5596 O   0  0  0  0  0  0  0  0  0  0  0  0
   15.7319   11.0534   -0.1339 C   0  0  0  0  0  0  0  0  0  0  0  0
   15.5887   10.9430    1.3705 C   0  0  0  0  0  0  0  0  0  0  0  0
   16.0519    8.8919  -13.9809 O   0  0  0  0  0  0  0  0  0  0  0  0
   16.3745    9.3772  -15.2519 C   0  0  0  0  0  0  0  0  0  0  0  0
   16.0295    8.2946    1.6014 O   0  0  0  0  0  0  0  0  0  0  0  0
   17.0287    8.3622    0.6401 C   0  0  0  0  0  0  0  0  0  0  0  0
 26 27  1  0
  2 26  1  0
 28 29  1  0
 20 28  1  0
  1  2  2  0
  2  3  1  0
  3  4  2  0
  4  5  1  0
  5  6  2  0
  6  1  1  0
  4  7  1  0
  7  8  1  0
  7  9  2  0
  8 10  1  0
 10 11  1  0
 11 12  2  0
 12 13  1  0
 13 14  2  0
 14 15  1  0
 15 16  2  0
 16 11  1  0
 14 17  1  0
 18 17  1  1
 18 19  1  0
 19 20  1  0
 19 21  2  0
 20 22  1  0
 18 23  1  0
 23 24  1  0
 24 25  1  0
M  STY  2   1 SUP   2 SUP
M  SLB  2   1   1   2   2
M  SAL   1  2  26  27
M  SBL   1  1   2
M  SMT   1 OCH3
M  SBV   1   2    0.7144    0.4125
M  SAL   2  2  28  29
M  SBL   2  1   4
M  SMT   2 OCH3
M  SBV   2   4   -0.7144   -0.4125
M  END
$$$$
