
     RDKit          3D

 29 30  0  2  0  0  0  0  0  0999 V2000
   17.0673    9.5956   -8.7172 C   0  0  0  0  0  0  0  0  0  0  0  0
   15.8946    9.0910   -8.2091 C   0  0  0  0  0  0  0  0  0  0  0  0
   15.9128    8.3551   -7.0540 C   0  0  0  0  0  0  0  0  0  0  0  0
   17.0861    8.0787   -6.3408 C   0  0  0  0  0  0  0  0  0  0  0  0
   18.2280    8.6035   -6.8878 C   0  0  0  0  0  0  0  0  0  0  0  0
   18.2439    9.3571   -8.0624 C   0  0  0  0  0  0  0  0  0  0  0  0
   17.0138    7.2925   -5.1289 C   0  0  0  0  0  0  0  0  0  0  0  0
   18.0965    6.8876   -4.2406 C   0  0  0  0  0  0  0  0  0  0  0  0
   15.8441    6.8792   -4.7587 O   0  0  0  0  0  0  0  0  0  0  0  0
   17.7845    6.0647   -3.1758 O   0  0  0  0  0  0  0  0  0  0  0  0
   17.9554    6.5510   -1.8743 C   0  0  0  0  0  0  0  0  0  0  0  0
   19.1790    6.9136   -1.3994 C   0  0  0  0  0  0  0  0  0  0  0  0
   19.3181    7.3892   -0.1137 C   0  0  0  0  0  0  0  0  0  0  0  0
   18.2607    7.5270    0.7547 C   0  0  0  0  0  0  0  0  0  0  0  0
   17.0225    7.1590    0.2714 C   0  0  0  0  0  0  0  0  0  0  0  0
   16.8609    6.6763   -1.0240 C   0  0  0  0  0  0  0  0  0  0  0  0
   18.4482    8.0356    2.1048 C   0  0  0  0  0  0  0  0  0  0  0  0
   18.1114    7.0817    3.2178 C   0  0  1  0  0  0  0  0  0  0  0  0
   18.9858    5.9018    3.2967 C   0  0  0  0  0  0  0  0  0  0  0  0
   18.4797    4.6757    3.7710 N   0  0  0  0  0  0  0  0  0  0  0  0
   20.1821    5.9645    2.9478 O   0  0  0  0  0  0  0  0  0  0  0  0
   19.2234    3.4362    3.6162 C   0  0  0  0  0  0  0  0  0  0  0  0
   17.9481    7.7143    4.4414 O   0  0  0  0  0  0  0  0  0  0  0  0
   19.0943    8.2419    4.9668 C   0  0  0  0  0  0  0  0  0  0  0  0
   19.6345    9.2611    3.9843 C   0  0  0  0  0  0  0  0  0  0  0  0
   14.6642    9.2982   -8.8277 O   0  0  0  0  0  0  0  0  0  0  0  0
   13.4392    8.9181   -8.2711 C   0  0  0  0  0  0  0  0  0  0  0  0
   17.2662    4.6668    4.3858 O   0  0  0  0  0  0  0  0  0  0  0  0
   17.3831    4.8628    5.7551 C   0  0  0  0  0  0  0  0  0  0  0  0
 26 27  1  0
  2 26  1  0
 28 29  1  0
 20 28  1  0
  1  2  2  0
  2  3  1  0
  3  4  2  0
  4  5  1  0
  5  6  2  0
  6  1  1  0
  4  7  1  0
  7  8  1  0
  7  9  2  0
  8 10  1  0
 10 11  1  0
 11 12  2  0
 12 13  1  0
 13 14  2  0
 14 15  1  0
 15 16  2  0
 16 11  1  0
 14 17  1  0
 18 17  1  6
 18 19  1  0
 19 20  1  0
 19 21  2  0
 20 22  1  0
 18 23  1  0
 23 24  1  0
 24 25  1  0
M  STY  2   1 SUP   2 SUP
M  SLB  2   1   1   2   2
M  SAL   1  2  26  27
M  SBL   1  1   2
M  SMT   1 OCH3
M  SBV   1   2    0.7144    0.4125
M  SAL   2  2  28  29
M  SBL   2  1   4
M  SMT   2 OCH3
M  SBV   2   4   -0.7144   -0.4125
M  END
$$$$
