
     RDKit          3D

 29 30  0  2  0  0  0  0  0  0999 V2000
   16.1083    8.8394  -12.2643 C   0  0  0  0  0  0  0  0  0  0  0  0
   15.0107    8.4406  -11.5404 C   0  0  0  0  0  0  0  0  0  0  0  0
   15.0911    8.3461  -10.1762 C   0  0  0  0  0  0  0  0  0  0  0  0
   16.2559    8.6394   -9.4559 C   0  0  0  0  0  0  0  0  0  0  0  0
   17.3219    9.0323  -10.2228 C   0  0  0  0  0  0  0  0  0  0  0  0
   17.2731    9.1387  -11.6135 C   0  0  0  0  0  0  0  0  0  0  0  0
   16.2526    8.5126   -8.0152 C   0  0  0  0  0  0  0  0  0  0  0  0
   17.3777    8.5948   -7.0916 C   0  0  0  0  0  0  0  0  0  0  0  0
   15.1125    8.2968   -7.4411 O   0  0  0  0  0  0  0  0  0  0  0  0
   17.1538    9.1570   -5.8498 O   0  0  0  0  0  0  0  0  0  0  0  0
   17.1971    8.3338   -4.7184 C   0  0  0  0  0  0  0  0  0  0  0  0
   16.1567    8.2632   -3.8429 C   0  0  0  0  0  0  0  0  0  0  0  0
   16.2265    7.4441   -2.7371 C   0  0  0  0  0  0  0  0  0  0  0  0
   17.3211    6.6629   -2.4490 C   0  0  0  0  0  0  0  0  0  0  0  0
   18.3736    6.7362   -3.3373 C   0  0  0  0  0  0  0  0  0  0  0  0
   18.3228    7.5572   -4.4599 C   0  0  0  0  0  0  0  0  0  0  0  0
   17.3557    5.8087   -1.2719 C   0  0  0  0  0  0  0  0  0  0  0  0
   17.5965    6.5068    0.0384 C   0  0  1  0  0  0  0  0  0  0  0  0
   17.5932    5.6208    1.2123 C   0  0  0  0  0  0  0  0  0  0  0  0
   16.9732    6.0323    2.4084 N   0  0  0  0  0  0  0  0  0  0  0  0
   18.1350    4.4977    1.1707 O   0  0  0  0  0  0  0  0  0  0  0  0
   16.9647    5.1853    3.5899 C   0  0  0  0  0  0  0  0  0  0  0  0
   18.6940    7.3544    0.0059 O   0  0  0  0  0  0  0  0  0  0  0  0
   19.8828    6.7586    0.3220 C   0  0  0  0  0  0  0  0  0  0  0  0
   20.1883    7.0632    1.7745 C   0  0  0  0  0  0  0  0  0  0  0  0
   13.7961    8.1219  -12.1429 O   0  0  0  0  0  0  0  0  0  0  0  0
   13.5086    8.3624  -13.4899 C   0  0  0  0  0  0  0  0  0  0  0  0
   16.3728    7.2525    2.4438 O   0  0  0  0  0  0  0  0  0  0  0  0
   16.1971    7.7752    1.1698 C   0  0  0  0  0  0  0  0  0  0  0  0
 26 27  1  0
  2 26  1  0
 28 29  1  0
 20 28  1  0
  1  2  2  0
  2  3  1  0
  3  4  2  0
  4  5  1  0
  5  6  2  0
  6  1  1  0
  4  7  1  0
  7  8  1  0
  7  9  2  0
  8 10  1  0
 10 11  1  0
 11 12  2  0
 12 13  1  0
 13 14  2  0
 14 15  1  0
 15 16  2  0
 16 11  1  0
 14 17  1  0
 18 17  1  6
 18 19  1  0
 19 20  1  0
 19 21  2  0
 20 22  1  0
 18 23  1  0
 23 24  1  0
 24 25  1  0
M  STY  2   1 SUP   2 SUP
M  SLB  2   1   1   2   2
M  SAL   1  2  26  27
M  SBL   1  1   2
M  SMT   1 OCH3
M  SBV   1   2    0.7144    0.4125
M  SAL   2  2  28  29
M  SBL   2  1   4
M  SMT   2 OCH3
M  SBV   2   4   -0.7144   -0.4125
M  END
$$$$
