
     RDKit          3D

 29 30  0  2  0  0  0  0  0  0999 V2000
   19.4877    2.5681    7.6700 C   0  0  0  0  0  0  0  0  0  0  0  0
   20.8502    2.4093    7.5902 C   0  0  0  0  0  0  0  0  0  0  0  0
   21.5540    3.0446    6.6015 C   0  0  0  0  0  0  0  0  0  0  0  0
   20.9521    3.8681    5.6416 C   0  0  0  0  0  0  0  0  0  0  0  0
   19.5928    3.9942    5.7639 C   0  0  0  0  0  0  0  0  0  0  0  0
   18.8465    3.3610    6.7589 C   0  0  0  0  0  0  0  0  0  0  0  0
   21.7719    4.5006    4.6318 C   0  0  0  0  0  0  0  0  0  0  0  0
   21.4700    5.6702    3.8156 C   0  0  0  0  0  0  0  0  0  0  0  0
   22.9346    3.9805    4.4001 O   0  0  0  0  0  0  0  0  0  0  0  0
   21.8669    5.6540    2.4925 O   0  0  0  0  0  0  0  0  0  0  0  0
   21.0352    6.2402    1.5311 C   0  0  0  0  0  0  0  0  0  0  0  0
   19.8055    6.7305    1.8500 C   0  0  0  0  0  0  0  0  0  0  0  0
   19.0077    7.3025    0.8832 C   0  0  0  0  0  0  0  0  0  0  0  0
   19.3871    7.4150   -0.4339 C   0  0  0  0  0  0  0  0  0  0  0  0
   20.6330    6.9177   -0.7544 C   0  0  0  0  0  0  0  0  0  0  0  0
   21.4540    6.3362    0.2074 C   0  0  0  0  0  0  0  0  0  0  0  0
   18.5166    8.0280   -1.4253 C   0  0  0  0  0  0  0  0  0  0  0  0
   17.1644    7.3915   -1.5942 C   0  0  1  0  0  0  0  0  0  0  0  0
   16.1861    8.2182   -2.3172 C   0  0  0  0  0  0  0  0  0  0  0  0
   14.9278    8.4896   -1.7449 N   0  0  0  0  0  0  0  0  0  0  0  0
   16.4505    8.6905   -3.4413 O   0  0  0  0  0  0  0  0  0  0  0  0
   13.9261    9.2728   -2.4494 C   0  0  0  0  0  0  0  0  0  0  0  0
   17.2344    6.0931   -2.0772 O   0  0  0  0  0  0  0  0  0  0  0  0
   17.4096    5.9974   -3.4293 C   0  0  0  0  0  0  0  0  0  0  0  0
   18.8294    6.4189   -3.7490 C   0  0  0  0  0  0  0  0  0  0  0  0
   21.5619    1.6161    8.4867 O   0  0  0  0  0  0  0  0  0  0  0  0
   22.9459    1.4262    8.4293 C   0  0  0  0  0  0  0  0  0  0  0  0
   14.6582    8.0010   -0.5043 O   0  0  0  0  0  0  0  0  0  0  0  0
   13.7164    6.9821   -0.5473 C   0  0  0  0  0  0  0  0  0  0  0  0
 26 27  1  0
  2 26  1  0
 28 29  1  0
 20 28  1  0
  1  2  2  0
  2  3  1  0
  3  4  2  0
  4  5  1  0
  5  6  2  0
  6  1  1  0
  4  7  1  0
  7  8  1  0
  7  9  2  0
  8 10  1  0
 10 11  1  0
 11 12  2  0
 12 13  1  0
 13 14  2  0
 14 15  1  0
 15 16  2  0
 16 11  1  0
 14 17  1  0
 18 17  1  6
 18 19  1  0
 19 20  1  0
 19 21  2  0
 20 22  1  0
 18 23  1  0
 23 24  1  0
 24 25  1  0
M  STY  2   1 SUP   2 SUP
M  SLB  2   1   1   2   2
M  SAL   1  2  26  27
M  SBL   1  1   2
M  SMT   1 OCH3
M  SBV   1   2    0.7144    0.4125
M  SAL   2  2  28  29
M  SBL   2  1   4
M  SMT   2 OCH3
M  SBV   2   4   -0.7144   -0.4125
M  END
$$$$
