
     RDKit          3D

 29 30  0  2  0  0  0  0  0  0999 V2000
   17.4501   10.1991   -7.2233 C   0  0  0  0  0  0  0  0  0  0  0  0
   16.7370    9.0552   -7.4893 C   0  0  0  0  0  0  0  0  0  0  0  0
   16.6473    8.0714   -6.5404 C   0  0  0  0  0  0  0  0  0  0  0  0
   17.2551    8.1640   -5.2819 C   0  0  0  0  0  0  0  0  0  0  0  0
   17.9540    9.3230   -5.0654 C   0  0  0  0  0  0  0  0  0  0  0  0
   18.0647   10.3441   -6.0104 C   0  0  0  0  0  0  0  0  0  0  0  0
   17.1089    7.0768   -4.3393 C   0  0  0  0  0  0  0  0  0  0  0  0
   17.6316    6.9720   -2.9824 C   0  0  0  0  0  0  0  0  0  0  0  0
   16.4279    6.0453   -4.7242 O   0  0  0  0  0  0  0  0  0  0  0  0
   17.4317    5.7858   -2.3033 O   0  0  0  0  0  0  0  0  0  0  0  0
   17.9508    5.6526   -1.0101 C   0  0  0  0  0  0  0  0  0  0  0  0
   17.3008    6.1503    0.0781 C   0  0  0  0  0  0  0  0  0  0  0  0
   17.8351    6.0048    1.3398 C   0  0  0  0  0  0  0  0  0  0  0  0
   19.0282    5.3648    1.5810 C   0  0  0  0  0  0  0  0  0  0  0  0
   19.6846    4.8617    0.4773 C   0  0  0  0  0  0  0  0  0  0  0  0
   19.1618    4.9982   -0.8053 C   0  0  0  0  0  0  0  0  0  0  0  0
   19.5583    5.2295    2.9291 C   0  0  0  0  0  0  0  0  0  0  0  0
   18.8849    6.0617    3.9855 C   0  0  1  0  0  0  0  0  0  0  0  0
   17.4341    5.8484    4.0983 C   0  0  0  0  0  0  0  0  0  0  0  0
   16.9288    4.5747    4.4252 N   0  0  0  0  0  0  0  0  0  0  0  0
   16.6308    6.7840    3.9082 O   0  0  0  0  0  0  0  0  0  0  0  0
   15.5233    4.2473    4.2499 C   0  0  0  0  0  0  0  0  0  0  0  0
   19.5342    6.0099    5.2102 O   0  0  0  0  0  0  0  0  0  0  0  0
   20.8976    6.0687    5.1345 C   0  0  0  0  0  0  0  0  0  0  0  0
   21.2658    7.1565    4.1461 C   0  0  0  0  0  0  0  0  0  0  0  0
   16.0885    8.8468   -8.7040 O   0  0  0  0  0  0  0  0  0  0  0  0
   15.2929    7.7307   -8.9803 C   0  0  0  0  0  0  0  0  0  0  0  0
   17.7875    3.6401    4.9148 O   0  0  0  0  0  0  0  0  0  0  0  0
   17.9550    3.7658    6.2871 C   0  0  0  0  0  0  0  0  0  0  0  0
 26 27  1  0
  2 26  1  0
 28 29  1  0
 20 28  1  0
  1  2  2  0
  2  3  1  0
  3  4  2  0
  4  5  1  0
  5  6  2  0
  6  1  1  0
  4  7  1  0
  7  8  1  0
  7  9  2  0
  8 10  1  0
 10 11  1  0
 11 12  2  0
 12 13  1  0
 13 14  2  0
 14 15  1  0
 15 16  2  0
 16 11  1  0
 14 17  1  0
 18 17  1  6
 18 19  1  0
 19 20  1  0
 19 21  2  0
 20 22  1  0
 18 23  1  0
 23 24  1  0
 24 25  1  0
M  STY  2   1 SUP   2 SUP
M  SLB  2   1   1   2   2
M  SAL   1  2  26  27
M  SBL   1  1   2
M  SMT   1 OCH3
M  SBV   1   2    0.7144    0.4125
M  SAL   2  2  28  29
M  SBL   2  1   4
M  SMT   2 OCH3
M  SBV   2   4   -0.7144   -0.4125
M  END
$$$$
