
     RDKit          3D

 29 30  0  2  0  0  0  0  0  0999 V2000
   20.8479    5.8476    3.8167 C   0  0  0  0  0  0  0  0  0  0  0  0
   20.1227    4.7292    3.4834 C   0  0  0  0  0  0  0  0  0  0  0  0
   19.5762    4.6187    2.2322 C   0  0  0  0  0  0  0  0  0  0  0  0
   19.7160    5.6035    1.2462 C   0  0  0  0  0  0  0  0  0  0  0  0
   20.4472    6.6984    1.6273 C   0  0  0  0  0  0  0  0  0  0  0  0
   21.0171    6.8418    2.8933 C   0  0  0  0  0  0  0  0  0  0  0  0
   19.1050    5.4049   -0.0497 C   0  0  0  0  0  0  0  0  0  0  0  0
   18.9700    6.3546   -1.1475 C   0  0  0  0  0  0  0  0  0  0  0  0
   18.6023    4.2376   -0.2960 O   0  0  0  0  0  0  0  0  0  0  0  0
   18.3842    5.9104   -2.3170 O   0  0  0  0  0  0  0  0  0  0  0  0
   17.7953    6.8467   -3.1750 C   0  0  0  0  0  0  0  0  0  0  0  0
   18.2925    8.1071   -3.3103 C   0  0  0  0  0  0  0  0  0  0  0  0
   17.6926    9.0086   -4.1623 C   0  0  0  0  0  0  0  0  0  0  0  0
   16.5813    8.7066   -4.9141 C   0  0  0  0  0  0  0  0  0  0  0  0
   16.0796    7.4294   -4.7752 C   0  0  0  0  0  0  0  0  0  0  0  0
   16.6709    6.5042   -3.9200 C   0  0  0  0  0  0  0  0  0  0  0  0
   15.9778    9.6860   -5.8047 C   0  0  0  0  0  0  0  0  0  0  0  0
   16.3937    9.6044   -7.2478 C   0  0  1  0  0  0  0  0  0  0  0  0
   15.9405   10.7302   -8.0787 C   0  0  0  0  0  0  0  0  0  0  0  0
   14.5741   10.8768   -8.3884 N   0  0  0  0  0  0  0  0  0  0  0  0
   16.7512   11.5692   -8.5209 O   0  0  0  0  0  0  0  0  0  0  0  0
   14.0982   11.9631   -9.2291 C   0  0  0  0  0  0  0  0  0  0  0  0
   17.7433    9.3261   -7.4069 O   0  0  0  0  0  0  0  0  0  0  0  0
   18.0102    8.1946   -8.1255 C   0  0  0  0  0  0  0  0  0  0  0  0
   17.8221    8.5166   -9.5941 C   0  0  0  0  0  0  0  0  0  0  0  0
   19.9142    3.6822    4.3778 O   0  0  0  0  0  0  0  0  0  0  0  0
   19.6513    2.3656    3.9875 C   0  0  0  0  0  0  0  0  0  0  0  0
   13.6916    9.9737   -7.8822 O   0  0  0  0  0  0  0  0  0  0  0  0
   13.2558    9.0822   -8.8529 C   0  0  0  0  0  0  0  0  0  0  0  0
 26 27  1  0
  2 26  1  0
 28 29  1  0
 20 28  1  0
  1  2  2  0
  2  3  1  0
  3  4  2  0
  4  5  1  0
  5  6  2  0
  6  1  1  0
  4  7  1  0
  7  8  1  0
  7  9  2  0
  8 10  1  0
 10 11  1  0
 11 12  2  0
 12 13  1  0
 13 14  2  0
 14 15  1  0
 15 16  2  0
 16 11  1  0
 14 17  1  0
 18 17  1  1
 18 19  1  0
 19 20  1  0
 19 21  2  0
 20 22  1  0
 18 23  1  0
 23 24  1  0
 24 25  1  0
M  STY  2   1 SUP   2 SUP
M  SLB  2   1   1   2   2
M  SAL   1  2  26  27
M  SBL   1  1   2
M  SMT   1 OCH3
M  SBV   1   2    0.7144    0.4125
M  SAL   2  2  28  29
M  SBL   2  1   4
M  SMT   2 OCH3
M  SBV   2   4   -0.7144   -0.4125
M  END
$$$$
