
     RDKit          3D

 29 30  0  2  0  0  0  0  0  0999 V2000
   19.0695    8.2427    2.7234 C   0  0  0  0  0  0  0  0  0  0  0  0
   18.6475    6.9723    2.4139 C   0  0  0  0  0  0  0  0  0  0  0  0
   18.1053    6.7148    1.1827 C   0  0  0  0  0  0  0  0  0  0  0  0
   17.9512    7.6949    0.1940 C   0  0  0  0  0  0  0  0  0  0  0  0
   18.3869    8.9445    0.5511 C   0  0  0  0  0  0  0  0  0  0  0  0
   18.9435    9.2399    1.7963 C   0  0  0  0  0  0  0  0  0  0  0  0
   17.3681    7.3353   -1.0798 C   0  0  0  0  0  0  0  0  0  0  0  0
   17.4362    8.0528   -2.3470 C   0  0  0  0  0  0  0  0  0  0  0  0
   16.6894    6.2342   -1.1319 O   0  0  0  0  0  0  0  0  0  0  0  0
   17.0768    7.3725   -3.4943 O   0  0  0  0  0  0  0  0  0  0  0  0
   17.2942    7.9811   -4.7360 C   0  0  0  0  0  0  0  0  0  0  0  0
   17.1359    9.3216   -4.9149 C   0  0  0  0  0  0  0  0  0  0  0  0
   17.3568    9.8942   -6.1485 C   0  0  0  0  0  0  0  0  0  0  0  0
   17.7417    9.1720   -7.2537 C   0  0  0  0  0  0  0  0  0  0  0  0
   17.9013    7.8144   -7.0701 C   0  0  0  0  0  0  0  0  0  0  0  0
   17.6832    7.2169   -5.8322 C   0  0  0  0  0  0  0  0  0  0  0  0
   17.9675    9.8140   -8.5396 C   0  0  0  0  0  0  0  0  0  0  0  0
   16.7682    9.9165   -9.4413 C   0  0  1  0  0  0  0  0  0  0  0  0
   15.6121   10.6024   -8.8446 C   0  0  0  0  0  0  0  0  0  0  0  0
   14.3028   10.2242   -9.2013 N   0  0  0  0  0  0  0  0  0  0  0  0
   15.7684   11.5241   -8.0185 O   0  0  0  0  0  0  0  0  0  0  0  0
   13.1862   11.1474   -9.0810 C   0  0  0  0  0  0  0  0  0  0  0  0
   17.0818   10.3902  -10.7067 O   0  0  0  0  0  0  0  0  0  0  0  0
   16.2670    9.9324  -11.7040 C   0  0  0  0  0  0  0  0  0  0  0  0
   16.5981    8.4740  -11.9474 C   0  0  0  0  0  0  0  0  0  0  0  0
   18.7482    5.9137    3.3133 O   0  0  0  0  0  0  0  0  0  0  0  0
   18.4458    4.5871    2.9912 C   0  0  0  0  0  0  0  0  0  0  0  0
   14.0937    8.9634   -9.6672 O   0  0  0  0  0  0  0  0  0  0  0  0
   14.7457    8.0147   -8.8914 C   0  0  0  0  0  0  0  0  0  0  0  0
 26 27  1  0
  2 26  1  0
 28 29  1  0
 20 28  1  0
  1  2  2  0
  2  3  1  0
  3  4  2  0
  4  5  1  0
  5  6  2  0
  6  1  1  0
  4  7  1  0
  7  8  1  0
  7  9  2  0
  8 10  1  0
 10 11  1  0
 11 12  2  0
 12 13  1  0
 13 14  2  0
 14 15  1  0
 15 16  2  0
 16 11  1  0
 14 17  1  0
 18 17  1  1
 18 19  1  0
 19 20  1  0
 19 21  2  0
 20 22  1  0
 18 23  1  0
 23 24  1  0
 24 25  1  0
M  STY  2   1 SUP   2 SUP
M  SLB  2   1   1   2   2
M  SAL   1  2  26  27
M  SBL   1  1   2
M  SMT   1 OCH3
M  SBV   1   2    0.7144    0.4125
M  SAL   2  2  28  29
M  SBL   2  1   4
M  SMT   2 OCH3
M  SBV   2   4   -0.7144   -0.4125
M  END
$$$$
