
     RDKit          3D

 29 30  0  2  0  0  0  0  0  0999 V2000
   17.2064    9.8909  -10.8029 C   0  0  0  0  0  0  0  0  0  0  0  0
   16.1090    9.0661  -10.7445 C   0  0  0  0  0  0  0  0  0  0  0  0
   15.7680    8.4676   -9.5605 C   0  0  0  0  0  0  0  0  0  0  0  0
   16.4900    8.6509   -8.3743 C   0  0  0  0  0  0  0  0  0  0  0  0
   17.5746    9.4815   -8.4845 C   0  0  0  0  0  0  0  0  0  0  0  0
   17.9489   10.1064   -9.6750 C   0  0  0  0  0  0  0  0  0  0  0  0
   16.0589    7.9794   -7.1680 C   0  0  0  0  0  0  0  0  0  0  0  0
   16.7570    7.8602   -5.8937 C   0  0  0  0  0  0  0  0  0  0  0  0
   14.9027    7.3976   -7.1935 O   0  0  0  0  0  0  0  0  0  0  0  0
   16.0908    7.2527   -4.8470 O   0  0  0  0  0  0  0  0  0  0  0  0
   16.6493    7.3145   -3.5649 C   0  0  0  0  0  0  0  0  0  0  0  0
   16.5155    6.2929   -2.6746 C   0  0  0  0  0  0  0  0  0  0  0  0
   17.0758    6.3806   -1.4189 C   0  0  0  0  0  0  0  0  0  0  0  0
   17.7891    7.4752   -0.9895 C   0  0  0  0  0  0  0  0  0  0  0  0
   17.9233    8.5086   -1.8930 C   0  0  0  0  0  0  0  0  0  0  0  0
   17.3649    8.4395   -3.1660 C   0  0  0  0  0  0  0  0  0  0  0  0
   18.3678    7.5290    0.3442 C   0  0  0  0  0  0  0  0  0  0  0  0
   17.5600    8.2606    1.3808 C   0  0  1  0  0  0  0  0  0  0  0  0
   16.2211    7.7004    1.6191 C   0  0  0  0  0  0  0  0  0  0  0  0
   15.1347    8.0953    0.8140 N   0  0  0  0  0  0  0  0  0  0  0  0
   16.0246    6.8722    2.5312 O   0  0  0  0  0  0  0  0  0  0  0  0
   13.8259    7.4768    0.9479 C   0  0  0  0  0  0  0  0  0  0  0  0
   18.2649    8.4897    2.5532 O   0  0  0  0  0  0  0  0  0  0  0  0
   18.1954    9.7733    3.0175 C   0  0  0  0  0  0  0  0  0  0  0  0
   16.8253    9.9761    3.6318 C   0  0  0  0  0  0  0  0  0  0  0  0
   15.3122    8.8061  -11.8567 O   0  0  0  0  0  0  0  0  0  0  0  0
   15.6577    9.1651  -13.1630 C   0  0  0  0  0  0  0  0  0  0  0  0
   15.3297    9.0789   -0.1053 O   0  0  0  0  0  0  0  0  0  0  0  0
   14.7469   10.2748    0.2910 C   0  0  0  0  0  0  0  0  0  0  0  0
 26 27  1  0
  2 26  1  0
 28 29  1  0
 20 28  1  0
  1  2  2  0
  2  3  1  0
  3  4  2  0
  4  5  1  0
  5  6  2  0
  6  1  1  0
  4  7  1  0
  7  8  1  0
  7  9  2  0
  8 10  1  0
 10 11  1  0
 11 12  2  0
 12 13  1  0
 13 14  2  0
 14 15  1  0
 15 16  2  0
 16 11  1  0
 14 17  1  0
 18 17  1  6
 18 19  1  0
 19 20  1  0
 19 21  2  0
 20 22  1  0
 18 23  1  0
 23 24  1  0
 24 25  1  0
M  STY  2   1 SUP   2 SUP
M  SLB  2   1   1   2   2
M  SAL   1  2  26  27
M  SBL   1  1   2
M  SMT   1 OCH3
M  SBV   1   2    0.7144    0.4125
M  SAL   2  2  28  29
M  SBL   2  1   4
M  SMT   2 OCH3
M  SBV   2   4   -0.7144   -0.4125
M  END
$$$$
