
     RDKit          3D

 29 30  0  2  0  0  0  0  0  0999 V2000
   19.8901    4.3391    6.4511 C   0  0  0  0  0  0  0  0  0  0  0  0
   19.9002    3.1252    5.8077 C   0  0  0  0  0  0  0  0  0  0  0  0
   19.8206    3.0770    4.4411 C   0  0  0  0  0  0  0  0  0  0  0  0
   19.7271    4.2214    3.6390 C   0  0  0  0  0  0  0  0  0  0  0  0
   19.7209    5.4066    4.3275 C   0  0  0  0  0  0  0  0  0  0  0  0
   19.8005    5.4902    5.7184 C   0  0  0  0  0  0  0  0  0  0  0  0
   19.6470    4.0787    2.2019 C   0  0  0  0  0  0  0  0  0  0  0  0
   19.1266    5.0233    1.2210 C   0  0  0  0  0  0  0  0  0  0  0  0
   20.0889    2.9749    1.6898 O   0  0  0  0  0  0  0  0  0  0  0  0
   19.3857    4.7768   -0.1133 O   0  0  0  0  0  0  0  0  0  0  0  0
   18.9819    5.7208   -1.0649 C   0  0  0  0  0  0  0  0  0  0  0  0
   18.6147    6.9834   -0.7112 C   0  0  0  0  0  0  0  0  0  0  0  0
   18.2214    7.8923   -1.6691 C   0  0  0  0  0  0  0  0  0  0  0  0
   18.1738    7.5960   -3.0112 C   0  0  0  0  0  0  0  0  0  0  0  0
   18.5462    6.3165   -3.3670 C   0  0  0  0  0  0  0  0  0  0  0  0
   18.9465    5.3837   -2.4147 C   0  0  0  0  0  0  0  0  0  0  0  0
   17.7550    8.5847   -3.9928 C   0  0  0  0  0  0  0  0  0  0  0  0
   16.2703    8.7323   -4.1829 C   0  0  1  0  0  0  0  0  0  0  0  0
   15.8718    9.8790   -5.0132 C   0  0  0  0  0  0  0  0  0  0  0  0
   14.7682   10.6722   -4.6425 N   0  0  0  0  0  0  0  0  0  0  0  0
   16.4987   10.1680   -6.0525 O   0  0  0  0  0  0  0  0  0  0  0  0
   14.3442   11.8067   -5.4464 C   0  0  0  0  0  0  0  0  0  0  0  0
   15.6538    7.5500   -4.5652 O   0  0  0  0  0  0  0  0  0  0  0  0
   16.0923    7.0380   -5.7542 C   0  0  0  0  0  0  0  0  0  0  0  0
   15.4326    7.8188   -6.8726 C   0  0  0  0  0  0  0  0  0  0  0  0
   19.9894    1.9176    6.4958 O   0  0  0  0  0  0  0  0  0  0  0  0
   19.8898    1.8045    7.8859 C   0  0  0  0  0  0  0  0  0  0  0  0
   14.0938   10.3573   -3.5038 O   0  0  0  0  0  0  0  0  0  0  0  0
   14.6503   10.9724   -2.3908 C   0  0  0  0  0  0  0  0  0  0  0  0
 26 27  1  0
  2 26  1  0
 28 29  1  0
 20 28  1  0
  1  2  2  0
  2  3  1  0
  3  4  2  0
  4  5  1  0
  5  6  2  0
  6  1  1  0
  4  7  1  0
  7  8  1  0
  7  9  2  0
  8 10  1  0
 10 11  1  0
 11 12  2  0
 12 13  1  0
 13 14  2  0
 14 15  1  0
 15 16  2  0
 16 11  1  0
 14 17  1  0
 18 17  1  6
 18 19  1  0
 19 20  1  0
 19 21  2  0
 20 22  1  0
 18 23  1  0
 23 24  1  0
 24 25  1  0
M  STY  2   1 SUP   2 SUP
M  SLB  2   1   1   2   2
M  SAL   1  2  26  27
M  SBL   1  1   2
M  SMT   1 OCH3
M  SBV   1   2    0.7144    0.4125
M  SAL   2  2  28  29
M  SBL   2  1   4
M  SMT   2 OCH3
M  SBV   2   4   -0.7144   -0.4125
M  END
$$$$
