
     RDKit          3D

 29 30  0  2  0  0  0  0  0  0999 V2000
   19.8614    7.0130    3.3412 C   0  0  0  0  0  0  0  0  0  0  0  0
   18.8482    7.9016    3.0734 C   0  0  0  0  0  0  0  0  0  0  0  0
   18.2356    7.8882    1.8483 C   0  0  0  0  0  0  0  0  0  0  0  0
   18.5893    6.9995    0.8252 C   0  0  0  0  0  0  0  0  0  0  0  0
   19.6042    6.1342    1.1413 C   0  0  0  0  0  0  0  0  0  0  0  0
   20.2488    6.1218    2.3791 C   0  0  0  0  0  0  0  0  0  0  0  0
   17.8890    7.0547   -0.4391 C   0  0  0  0  0  0  0  0  0  0  0  0
   18.2755    6.4751   -1.7198 C   0  0  0  0  0  0  0  0  0  0  0  0
   16.7660    7.6981   -0.4677 O   0  0  0  0  0  0  0  0  0  0  0  0
   17.2884    6.2881   -2.6679 O   0  0  0  0  0  0  0  0  0  0  0  0
   17.2231    7.1659   -3.7564 C   0  0  0  0  0  0  0  0  0  0  0  0
   16.1205    7.9276   -3.9980 C   0  0  0  0  0  0  0  0  0  0  0  0
   16.0836    8.7834   -5.0772 C   0  0  0  0  0  0  0  0  0  0  0  0
   17.1283    8.9239   -5.9605 C   0  0  0  0  0  0  0  0  0  0  0  0
   18.2439    8.1514   -5.7137 C   0  0  0  0  0  0  0  0  0  0  0  0
   18.3010    7.2809   -4.6292 C   0  0  0  0  0  0  0  0  0  0  0  0
   17.0517    9.8407   -7.0875 C   0  0  0  0  0  0  0  0  0  0  0  0
   16.3908    9.3029   -8.3269 C   0  0  1  0  0  0  0  0  0  0  0  0
   16.3002   10.2637   -9.4368 C   0  0  0  0  0  0  0  0  0  0  0  0
   15.0804   10.9112   -9.7151 N   0  0  0  0  0  0  0  0  0  0  0  0
   17.2937   10.5209  -10.1463 O   0  0  0  0  0  0  0  0  0  0  0  0
   14.9426   11.8196  -10.8416 C   0  0  0  0  0  0  0  0  0  0  0  0
   16.8969    8.0725   -8.7192 O   0  0  0  0  0  0  0  0  0  0  0  0
   16.1307    7.4077   -9.6352 C   0  0  0  0  0  0  0  0  0  0  0  0
   15.0895    6.6054   -8.8815 C   0  0  0  0  0  0  0  0  0  0  0  0
   18.4074    8.8336    4.0097 O   0  0  0  0  0  0  0  0  0  0  0  0
   17.8691   10.0796    3.6740 C   0  0  0  0  0  0  0  0  0  0  0  0
   14.0161   10.6712   -8.9025 O   0  0  0  0  0  0  0  0  0  0  0  0
   13.9451   11.5903   -7.8647 C   0  0  0  0  0  0  0  0  0  0  0  0
 26 27  1  0
  2 26  1  0
 28 29  1  0
 20 28  1  0
  1  2  2  0
  2  3  1  0
  3  4  2  0
  4  5  1  0
  5  6  2  0
  6  1  1  0
  4  7  1  0
  7  8  1  0
  7  9  2  0
  8 10  1  0
 10 11  1  0
 11 12  2  0
 12 13  1  0
 13 14  2  0
 14 15  1  0
 15 16  2  0
 16 11  1  0
 14 17  1  0
 18 17  1  1
 18 19  1  0
 19 20  1  0
 19 21  2  0
 20 22  1  0
 18 23  1  0
 23 24  1  0
 24 25  1  0
M  STY  2   1 SUP   2 SUP
M  SLB  2   1   1   2   2
M  SAL   1  2  26  27
M  SBL   1  1   2
M  SMT   1 OCH3
M  SBV   1   2    0.7144    0.4125
M  SAL   2  2  28  29
M  SBL   2  1   4
M  SMT   2 OCH3
M  SBV   2   4   -0.7144   -0.4125
M  END
$$$$
