
     RDKit          3D

 29 30  0  2  0  0  0  0  0  0999 V2000
   22.7336    6.2747    3.8463 C   0  0  0  0  0  0  0  0  0  0  0  0
   21.5918    5.5108    3.8688 C   0  0  0  0  0  0  0  0  0  0  0  0
   20.8007    5.4337    2.7532 C   0  0  0  0  0  0  0  0  0  0  0  0
   21.0939    6.1045    1.5592 C   0  0  0  0  0  0  0  0  0  0  0  0
   22.2422    6.8524    1.5874 C   0  0  0  0  0  0  0  0  0  0  0  0
   23.0696    6.9520    2.7069 C   0  0  0  0  0  0  0  0  0  0  0  0
   20.2025    5.9672    0.4285 C   0  0  0  0  0  0  0  0  0  0  0  0
   20.2887    6.6024   -0.8809 C   0  0  0  0  0  0  0  0  0  0  0  0
   19.1830    5.1818    0.5686 O   0  0  0  0  0  0  0  0  0  0  0  0
   19.3360    6.2691   -1.8241 O   0  0  0  0  0  0  0  0  0  0  0  0
   18.1526    7.0149   -1.8809 C   0  0  0  0  0  0  0  0  0  0  0  0
   17.9398    8.0849   -1.0661 C   0  0  0  0  0  0  0  0  0  0  0  0
   16.7653    8.8012   -1.1435 C   0  0  0  0  0  0  0  0  0  0  0  0
   15.7549    8.4939   -2.0243 C   0  0  0  0  0  0  0  0  0  0  0  0
   15.9728    7.4097   -2.8485 C   0  0  0  0  0  0  0  0  0  0  0  0
   17.1521    6.6733   -2.7859 C   0  0  0  0  0  0  0  0  0  0  0  0
   14.5296    9.2765   -2.0774 C   0  0  0  0  0  0  0  0  0  0  0  0
   14.5427   10.4531   -3.0142 C   0  0  1  0  0  0  0  0  0  0  0  0
   14.0277   10.1668   -4.3618 C   0  0  0  0  0  0  0  0  0  0  0  0
   14.2998   11.0486   -5.4261 N   0  0  0  0  0  0  0  0  0  0  0  0
   13.3458    9.1461   -4.5852 O   0  0  0  0  0  0  0  0  0  0  0  0
   13.8570   10.7632   -6.7810 C   0  0  0  0  0  0  0  0  0  0  0  0
   13.9871   11.5950   -2.4562 O   0  0  0  0  0  0  0  0  0  0  0  0
   12.6316   11.6964   -2.5986 C   0  0  0  0  0  0  0  0  0  0  0  0
   11.9825   10.9444   -1.4544 C   0  0  0  0  0  0  0  0  0  0  0  0
   21.1946    4.7974    4.9971 O   0  0  0  0  0  0  0  0  0  0  0  0
   19.8947    4.3246    5.2015 C   0  0  0  0  0  0  0  0  0  0  0  0
   14.9937   12.1892   -5.1649 O   0  0  0  0  0  0  0  0  0  0  0  0
   16.3402   12.0530   -5.4737 C   0  0  0  0  0  0  0  0  0  0  0  0
 26 27  1  0
  2 26  1  0
 28 29  1  0
 20 28  1  0
  1  2  2  0
  2  3  1  0
  3  4  2  0
  4  5  1  0
  5  6  2  0
  6  1  1  0
  4  7  1  0
  7  8  1  0
  7  9  2  0
  8 10  1  0
 10 11  1  0
 11 12  2  0
 12 13  1  0
 13 14  2  0
 14 15  1  0
 15 16  2  0
 16 11  1  0
 14 17  1  0
 18 17  1  1
 18 19  1  0
 19 20  1  0
 19 21  2  0
 20 22  1  0
 18 23  1  0
 23 24  1  0
 24 25  1  0
M  STY  2   1 SUP   2 SUP
M  SLB  2   1   1   2   2
M  SAL   1  2  26  27
M  SBL   1  1   2
M  SMT   1 OCH3
M  SBV   1   2    0.7144    0.4125
M  SAL   2  2  28  29
M  SBL   2  1   4
M  SMT   2 OCH3
M  SBV   2   4   -0.7144   -0.4125
M  END
$$$$
