
     RDKit          3D

 29 30  0  2  0  0  0  0  0  0999 V2000
   17.0078    8.8900  -11.4950 C   0  0  0  0  0  0  0  0  0  0  0  0
   15.6899    8.9937  -11.1207 C   0  0  0  0  0  0  0  0  0  0  0  0
   15.3499    8.9253   -9.7955 C   0  0  0  0  0  0  0  0  0  0  0  0
   16.2902    8.7514   -8.7721 C   0  0  0  0  0  0  0  0  0  0  0  0
   17.5898    8.6535   -9.1965 C   0  0  0  0  0  0  0  0  0  0  0  0
   17.9694    8.7192  -10.5379 C   0  0  0  0  0  0  0  0  0  0  0  0
   15.8431    8.6900   -7.3979 C   0  0  0  0  0  0  0  0  0  0  0  0
   16.5578    8.1900   -6.2297 C   0  0  0  0  0  0  0  0  0  0  0  0
   14.6534    9.1308   -7.1408 O   0  0  0  0  0  0  0  0  0  0  0  0
   16.2407    8.7306   -4.9987 O   0  0  0  0  0  0  0  0  0  0  0  0
   17.0028    8.3629   -3.8835 C   0  0  0  0  0  0  0  0  0  0  0  0
   17.3012    9.2505   -2.8949 C   0  0  0  0  0  0  0  0  0  0  0  0
   18.0536    8.8611   -1.8082 C   0  0  0  0  0  0  0  0  0  0  0  0
   18.5416    7.5850   -1.6509 C   0  0  0  0  0  0  0  0  0  0  0  0
   18.2381    6.6879   -2.6536 C   0  0  0  0  0  0  0  0  0  0  0  0
   17.4797    7.0614   -3.7592 C   0  0  0  0  0  0  0  0  0  0  0  0
   19.3308    7.2119   -0.4871 C   0  0  0  0  0  0  0  0  0  0  0  0
   18.5950    7.1886    0.8245 C   0  0  1  0  0  0  0  0  0  0  0  0
   17.4267    6.2956    0.8537 C   0  0  0  0  0  0  0  0  0  0  0  0
   16.1390    6.8214    1.0769 N   0  0  0  0  0  0  0  0  0  0  0  0
   17.5536    5.0663    0.6828 O   0  0  0  0  0  0  0  0  0  0  0  0
   15.9410    8.2113    1.4542 C   0  0  0  0  0  0  0  0  0  0  0  0
   19.4360    7.0117    1.9133 O   0  0  0  0  0  0  0  0  0  0  0  0
   20.6552    6.4738    1.6094 C   0  0  0  0  0  0  0  0  0  0  0  0
   21.0310    6.9238    0.2122 C   0  0  0  0  0  0  0  0  0  0  0  0
   14.6638    9.1686  -12.0461 O   0  0  0  0  0  0  0  0  0  0  0  0
   13.4510    8.4741  -12.0042 C   0  0  0  0  0  0  0  0  0  0  0  0
   15.0659    5.9979    0.9322 O   0  0  0  0  0  0  0  0  0  0  0  0
   15.3535    4.7032    1.3421 C   0  0  0  0  0  0  0  0  0  0  0  0
 26 27  1  0
  2 26  1  0
 28 29  1  0
 20 28  1  0
  1  2  2  0
  2  3  1  0
  3  4  2  0
  4  5  1  0
  5  6  2  0
  6  1  1  0
  4  7  1  0
  7  8  1  0
  7  9  2  0
  8 10  1  0
 10 11  1  0
 11 12  2  0
 12 13  1  0
 13 14  2  0
 14 15  1  0
 15 16  2  0
 16 11  1  0
 14 17  1  0
 18 17  1  6
 18 19  1  0
 19 20  1  0
 19 21  2  0
 20 22  1  0
 18 23  1  0
 23 24  1  0
 24 25  1  0
M  STY  2   1 SUP   2 SUP
M  SLB  2   1   1   2   2
M  SAL   1  2  26  27
M  SBL   1  1   2
M  SMT   1 OCH3
M  SBV   1   2    0.7144    0.4125
M  SAL   2  2  28  29
M  SBL   2  1   4
M  SMT   2 OCH3
M  SBV   2   4   -0.7144   -0.4125
M  END
$$$$
