
     RDKit          3D

 29 30  0  2  0  0  0  0  0  0999 V2000
   20.9993    5.0836    4.9410 C   0  0  0  0  0  0  0  0  0  0  0  0
   20.2537    3.9296    4.9388 C   0  0  0  0  0  0  0  0  0  0  0  0
   19.3137    3.7268    3.9633 C   0  0  0  0  0  0  0  0  0  0  0  0
   19.0604    4.6498    2.9408 C   0  0  0  0  0  0  0  0  0  0  0  0
   19.8293    5.7835    2.9867 C   0  0  0  0  0  0  0  0  0  0  0  0
   20.7948    6.0206    3.9663 C   0  0  0  0  0  0  0  0  0  0  0  0
   18.0485    4.3547    1.9504 C   0  0  0  0  0  0  0  0  0  0  0  0
   17.6847    5.1207    0.7645 C   0  0  0  0  0  0  0  0  0  0  0  0
   17.3575    3.2720    2.1125 O   0  0  0  0  0  0  0  0  0  0  0  0
   18.6491    5.3023   -0.2077 O   0  0  0  0  0  0  0  0  0  0  0  0
   18.3825    6.1767   -1.2679 C   0  0  0  0  0  0  0  0  0  0  0  0
   18.9852    6.0375   -2.4809 C   0  0  0  0  0  0  0  0  0  0  0  0
   18.7040    6.9130   -3.5070 C   0  0  0  0  0  0  0  0  0  0  0  0
   17.8199    7.9589   -3.3809 C   0  0  0  0  0  0  0  0  0  0  0  0
   17.2108    8.0979   -2.1513 C   0  0  0  0  0  0  0  0  0  0  0  0
   17.4813    7.2242   -1.1022 C   0  0  0  0  0  0  0  0  0  0  0  0
   17.5477    8.8610   -4.4893 C   0  0  0  0  0  0  0  0  0  0  0  0
   16.2431    8.6451   -5.2058 C   0  0  1  0  0  0  0  0  0  0  0  0
   15.9437    9.6431   -6.2438 C   0  0  0  0  0  0  0  0  0  0  0  0
   15.1582   10.7713   -5.9359 N   0  0  0  0  0  0  0  0  0  0  0  0
   16.3762    9.5100   -7.4064 O   0  0  0  0  0  0  0  0  0  0  0  0
   14.9282   11.8253   -6.9102 C   0  0  0  0  0  0  0  0  0  0  0  0
   16.0786    7.3409   -5.6486 O   0  0  0  0  0  0  0  0  0  0  0  0
   14.8850    7.0964   -6.2680 C   0  0  0  0  0  0  0  0  0  0  0  0
   13.8031    7.0707   -5.2075 C   0  0  0  0  0  0  0  0  0  0  0  0
   20.4136    2.9371    5.9028 O   0  0  0  0  0  0  0  0  0  0  0  0
   19.7289    1.7182    5.8861 C   0  0  0  0  0  0  0  0  0  0  0  0
   14.6089   10.8626   -4.6947 O   0  0  0  0  0  0  0  0  0  0  0  0
   13.2728   11.2352   -4.7507 C   0  0  0  0  0  0  0  0  0  0  0  0
 26 27  1  0
  2 26  1  0
 28 29  1  0
 20 28  1  0
  1  2  2  0
  2  3  1  0
  3  4  2  0
  4  5  1  0
  5  6  2  0
  6  1  1  0
  4  7  1  0
  7  8  1  0
  7  9  2  0
  8 10  1  0
 10 11  1  0
 11 12  2  0
 12 13  1  0
 13 14  2  0
 14 15  1  0
 15 16  2  0
 16 11  1  0
 14 17  1  0
 18 17  1  6
 18 19  1  0
 19 20  1  0
 19 21  2  0
 20 22  1  0
 18 23  1  0
 23 24  1  0
 24 25  1  0
M  STY  2   1 SUP   2 SUP
M  SLB  2   1   1   2   2
M  SAL   1  2  26  27
M  SBL   1  1   2
M  SMT   1 OCH3
M  SBV   1   2    0.7144    0.4125
M  SAL   2  2  28  29
M  SBL   2  1   4
M  SMT   2 OCH3
M  SBV   2   4   -0.7144   -0.4125
M  END
$$$$
