
     RDKit          3D

 29 30  0  2  0  0  0  0  0  0999 V2000
   20.9155    3.3942    6.4229 C   0  0  0  0  0  0  0  0  0  0  0  0
   20.3683    2.2872    5.8206 C   0  0  0  0  0  0  0  0  0  0  0  0
   19.8020    2.3967    4.5781 C   0  0  0  0  0  0  0  0  0  0  0  0
   19.7460    3.6015    3.8660 C   0  0  0  0  0  0  0  0  0  0  0  0
   20.3047    4.6753    4.5089 C   0  0  0  0  0  0  0  0  0  0  0  0
   20.8892    4.5975    5.7739 C   0  0  0  0  0  0  0  0  0  0  0  0
   19.1288    3.6270    2.5582 C   0  0  0  0  0  0  0  0  0  0  0  0
   18.9297    4.7640    1.6677 C   0  0  0  0  0  0  0  0  0  0  0  0
   18.6842    2.5050    2.0899 O   0  0  0  0  0  0  0  0  0  0  0  0
   18.2091    4.5570    0.5075 O   0  0  0  0  0  0  0  0  0  0  0  0
   17.9982    5.6370   -0.3578 C   0  0  0  0  0  0  0  0  0  0  0  0
   19.0341    6.3040   -0.9376 C   0  0  0  0  0  0  0  0  0  0  0  0
   18.7972    7.3639   -1.7857 C   0  0  0  0  0  0  0  0  0  0  0  0
   17.5338    7.8091   -2.0967 C   0  0  0  0  0  0  0  0  0  0  0  0
   16.4863    7.1320   -1.5082 C   0  0  0  0  0  0  0  0  0  0  0  0
   16.7043    6.0591   -0.6489 C   0  0  0  0  0  0  0  0  0  0  0  0
   17.3248    8.9310   -2.9990 C   0  0  0  0  0  0  0  0  0  0  0  0
   16.7293    8.5936   -4.3383 C   0  0  1  0  0  0  0  0  0  0  0  0
   15.3033    8.9271   -4.4743 C   0  0  0  0  0  0  0  0  0  0  0  0
   14.8104   10.1476   -3.9723 N   0  0  0  0  0  0  0  0  0  0  0  0
   14.5105    8.1417   -5.0321 O   0  0  0  0  0  0  0  0  0  0  0  0
   15.0433   10.5519   -2.5955 C   0  0  0  0  0  0  0  0  0  0  0  0
   17.4937    9.0521   -5.4011 O   0  0  0  0  0  0  0  0  0  0  0  0
   18.8338    9.1333   -5.1450 C   0  0  0  0  0  0  0  0  0  0  0  0
   19.4011    7.7284   -5.1661 C   0  0  0  0  0  0  0  0  0  0  0  0
   20.3632    1.0340    6.4282 O   0  0  0  0  0  0  0  0  0  0  0  0
   20.9272    0.7740    7.6809 C   0  0  0  0  0  0  0  0  0  0  0  0
   14.1023   10.9558   -4.8065 O   0  0  0  0  0  0  0  0  0  0  0  0
   14.8480   11.3271   -5.9169 C   0  0  0  0  0  0  0  0  0  0  0  0
 26 27  1  0
  2 26  1  0
 28 29  1  0
 20 28  1  0
  1  2  2  0
  2  3  1  0
  3  4  2  0
  4  5  1  0
  5  6  2  0
  6  1  1  0
  4  7  1  0
  7  8  1  0
  7  9  2  0
  8 10  1  0
 10 11  1  0
 11 12  2  0
 12 13  1  0
 13 14  2  0
 14 15  1  0
 15 16  2  0
 16 11  1  0
 14 17  1  0
 18 17  1  1
 18 19  1  0
 19 20  1  0
 19 21  2  0
 20 22  1  0
 18 23  1  0
 23 24  1  0
 24 25  1  0
M  STY  2   1 SUP   2 SUP
M  SLB  2   1   1   2   2
M  SAL   1  2  26  27
M  SBL   1  1   2
M  SMT   1 OCH3
M  SBV   1   2    0.7144    0.4125
M  SAL   2  2  28  29
M  SBL   2  1   4
M  SMT   2 OCH3
M  SBV   2   4   -0.7144   -0.4125
M  END
$$$$
