
     RDKit          3D

 29 30  0  2  0  0  0  0  0  0999 V2000
   20.8061    7.8598    3.5192 C   0  0  0  0  0  0  0  0  0  0  0  0
   21.5015    7.5173    2.3848 C   0  0  0  0  0  0  0  0  0  0  0  0
   20.8376    6.9794    1.3142 C   0  0  0  0  0  0  0  0  0  0  0  0
   19.4556    6.7516    1.3064 C   0  0  0  0  0  0  0  0  0  0  0  0
   18.8079    7.1095    2.4600 C   0  0  0  0  0  0  0  0  0  0  0  0
   19.4543    7.6596    3.5679 C   0  0  0  0  0  0  0  0  0  0  0  0
   18.8355    6.1790    0.1319 C   0  0  0  0  0  0  0  0  0  0  0  0
   19.0923    6.4798   -1.2713 C   0  0  0  0  0  0  0  0  0  0  0  0
   17.9272    5.2761    0.3210 O   0  0  0  0  0  0  0  0  0  0  0  0
   18.3364    5.8211   -2.2216 O   0  0  0  0  0  0  0  0  0  0  0  0
   17.5402    6.5750   -3.0919 C   0  0  0  0  0  0  0  0  0  0  0  0
   17.3735    7.9167   -2.9303 C   0  0  0  0  0  0  0  0  0  0  0  0
   16.5838    8.6341   -3.8022 C   0  0  0  0  0  0  0  0  0  0  0  0
   15.9277    8.0611   -4.8664 C   0  0  0  0  0  0  0  0  0  0  0  0
   16.0981    6.7020   -5.0280 C   0  0  0  0  0  0  0  0  0  0  0  0
   16.8914    5.9595   -4.1582 C   0  0  0  0  0  0  0  0  0  0  0  0
   15.1043    8.8534   -5.7668 C   0  0  0  0  0  0  0  0  0  0  0  0
   15.5986    8.9623   -7.1830 C   0  0  1  0  0  0  0  0  0  0  0  0
   15.0708   10.1159   -7.9273 C   0  0  0  0  0  0  0  0  0  0  0  0
   14.7518    9.9912   -9.2937 N   0  0  0  0  0  0  0  0  0  0  0  0
   14.8973   11.2169   -7.3668 O   0  0  0  0  0  0  0  0  0  0  0  0
   15.0647    8.7833  -10.0396 C   0  0  0  0  0  0  0  0  0  0  0  0
   16.9764    8.8392   -7.2860 O   0  0  0  0  0  0  0  0  0  0  0  0
   17.5219    9.4471   -8.3819 C   0  0  0  0  0  0  0  0  0  0  0  0
   18.5423   10.4574   -7.8983 C   0  0  0  0  0  0  0  0  0  0  0  0
   22.8781    7.6959    2.2721 O   0  0  0  0  0  0  0  0  0  0  0  0
   23.6089    7.4047    1.1162 C   0  0  0  0  0  0  0  0  0  0  0  0
   14.1370   11.0330   -9.9161 O   0  0  0  0  0  0  0  0  0  0  0  0
   12.8685   11.2625   -9.4009 C   0  0  0  0  0  0  0  0  0  0  0  0
 26 27  1  0
  2 26  1  0
 28 29  1  0
 20 28  1  0
  1  2  2  0
  2  3  1  0
  3  4  2  0
  4  5  1  0
  5  6  2  0
  6  1  1  0
  4  7  1  0
  7  8  1  0
  7  9  2  0
  8 10  1  0
 10 11  1  0
 11 12  2  0
 12 13  1  0
 13 14  2  0
 14 15  1  0
 15 16  2  0
 16 11  1  0
 14 17  1  0
 18 17  1  1
 18 19  1  0
 19 20  1  0
 19 21  2  0
 20 22  1  0
 18 23  1  0
 23 24  1  0
 24 25  1  0
M  STY  2   1 SUP   2 SUP
M  SLB  2   1   1   2   2
M  SAL   1  2  26  27
M  SBL   1  1   2
M  SMT   1 OCH3
M  SBV   1   2    0.7144    0.4125
M  SAL   2  2  28  29
M  SBL   2  1   4
M  SMT   2 OCH3
M  SBV   2   4   -0.7144   -0.4125
M  END
$$$$
