
     RDKit          3D

 29 30  0  2  0  0  0  0  0  0999 V2000
   15.0522    7.4460  -10.4612 C   0  0  0  0  0  0  0  0  0  0  0  0
   15.7677    8.6184  -10.4236 C   0  0  0  0  0  0  0  0  0  0  0  0
   16.4367    8.9728   -9.2821 C   0  0  0  0  0  0  0  0  0  0  0  0
   16.4353    8.1910   -8.1200 C   0  0  0  0  0  0  0  0  0  0  0  0
   15.7080    7.0326   -8.2080 C   0  0  0  0  0  0  0  0  0  0  0  0
   15.0154    6.6427   -9.3552 C   0  0  0  0  0  0  0  0  0  0  0  0
   17.1697    8.6415   -6.9583 C   0  0  0  0  0  0  0  0  0  0  0  0
   17.4124    7.9369   -5.7053 C   0  0  0  0  0  0  0  0  0  0  0  0
   17.6928    9.8246   -7.0091 O   0  0  0  0  0  0  0  0  0  0  0  0
   18.2834    8.5113   -4.7999 O   0  0  0  0  0  0  0  0  0  0  0  0
   18.1877    8.1522   -3.4502 C   0  0  0  0  0  0  0  0  0  0  0  0
   18.2769    9.0766   -2.4544 C   0  0  0  0  0  0  0  0  0  0  0  0
   18.1792    8.6948   -1.1341 C   0  0  0  0  0  0  0  0  0  0  0  0
   17.9901    7.3905   -0.7413 C   0  0  0  0  0  0  0  0  0  0  0  0
   17.9001    6.4561   -1.7518 C   0  0  0  0  0  0  0  0  0  0  0  0
   17.9963    6.8212   -3.0914 C   0  0  0  0  0  0  0  0  0  0  0  0
   17.8895    7.0275    0.6639 C   0  0  0  0  0  0  0  0  0  0  0  0
   17.0504    7.9376    1.5181 C   0  0  1  0  0  0  0  0  0  0  0  0
   15.6482    8.0559    1.0902 C   0  0  0  0  0  0  0  0  0  0  0  0
   14.8141    9.0374    1.6607 N   0  0  0  0  0  0  0  0  0  0  0  0
   15.1756    7.2954    0.2214 O   0  0  0  0  0  0  0  0  0  0  0  0
   14.4444    8.9965    3.0660 C   0  0  0  0  0  0  0  0  0  0  0  0
   17.1799    7.6778    2.8745 O   0  0  0  0  0  0  0  0  0  0  0  0
   18.2236    8.3197    3.4799 C   0  0  0  0  0  0  0  0  0  0  0  0
   17.8888    9.7958    3.5504 C   0  0  0  0  0  0  0  0  0  0  0  0
   15.8448    9.4797  -11.5154 O   0  0  0  0  0  0  0  0  0  0  0  0
   16.3115   10.7954  -11.4376 C   0  0  0  0  0  0  0  0  0  0  0  0
   14.3519   10.0403    0.8661 O   0  0  0  0  0  0  0  0  0  0  0  0
   13.5271    9.5584   -0.1412 C   0  0  0  0  0  0  0  0  0  0  0  0
 26 27  1  0
  2 26  1  0
 28 29  1  0
 20 28  1  0
  1  2  2  0
  2  3  1  0
  3  4  2  0
  4  5  1  0
  5  6  2  0
  6  1  1  0
  4  7  1  0
  7  8  1  0
  7  9  2  0
  8 10  1  0
 10 11  1  0
 11 12  2  0
 12 13  1  0
 13 14  2  0
 14 15  1  0
 15 16  2  0
 16 11  1  0
 14 17  1  0
 18 17  1  6
 18 19  1  0
 19 20  1  0
 19 21  2  0
 20 22  1  0
 18 23  1  0
 23 24  1  0
 24 25  1  0
M  STY  2   1 SUP   2 SUP
M  SLB  2   1   1   2   2
M  SAL   1  2  26  27
M  SBL   1  1   2
M  SMT   1 OCH3
M  SBV   1   2    0.7144    0.4125
M  SAL   2  2  28  29
M  SBL   2  1   4
M  SMT   2 OCH3
M  SBV   2   4   -0.7144   -0.4125
M  END
$$$$
