
     RDKit          3D

 29 30  0  2  0  0  0  0  0  0999 V2000
   20.4521    5.3191    6.6419 C   0  0  0  0  0  0  0  0  0  0  0  0
   20.2649    6.0276    5.4797 C   0  0  0  0  0  0  0  0  0  0  0  0
   19.7137    5.4123    4.3872 C   0  0  0  0  0  0  0  0  0  0  0  0
   19.3189    4.0684    4.3836 C   0  0  0  0  0  0  0  0  0  0  0  0
   19.5261    3.4057    5.5653 C   0  0  0  0  0  0  0  0  0  0  0  0
   20.0850    4.0030    6.6961 C   0  0  0  0  0  0  0  0  0  0  0  0
   18.7449    3.4985    3.1846 C   0  0  0  0  0  0  0  0  0  0  0  0
   18.2146    4.1863    2.0135 C   0  0  0  0  0  0  0  0  0  0  0  0
   18.6801    2.2076    3.1134 O   0  0  0  0  0  0  0  0  0  0  0  0
   18.9745    4.1764    0.8599 O   0  0  0  0  0  0  0  0  0  0  0  0
   18.4900    4.8406   -0.2731 C   0  0  0  0  0  0  0  0  0  0  0  0
   17.1780    4.7814   -0.6326 C   0  0  0  0  0  0  0  0  0  0  0  0
   16.7285    5.4452   -1.7532 C   0  0  0  0  0  0  0  0  0  0  0  0
   17.5504    6.1927   -2.5636 C   0  0  0  0  0  0  0  0  0  0  0  0
   18.8789    6.2512   -2.1975 C   0  0  0  0  0  0  0  0  0  0  0  0
   19.3528    5.5879   -1.0694 C   0  0  0  0  0  0  0  0  0  0  0  0
   17.0370    6.8814   -3.7378 C   0  0  0  0  0  0  0  0  0  0  0  0
   16.4192    8.2300   -3.4896 C   0  0  1  0  0  0  0  0  0  0  0  0
   15.8137    8.8524   -4.6766 C   0  0  0  0  0  0  0  0  0  0  0  0
   16.4732    9.9073   -5.3373 N   0  0  0  0  0  0  0  0  0  0  0  0
   14.7139    8.4607   -5.1167 O   0  0  0  0  0  0  0  0  0  0  0  0
   17.7364   10.4368   -4.8503 C   0  0  0  0  0  0  0  0  0  0  0  0
   15.5797    8.2454   -2.3855 O   0  0  0  0  0  0  0  0  0  0  0  0
   15.8713    9.2100   -1.4621 C   0  0  0  0  0  0  0  0  0  0  0  0
   15.2570   10.5121   -1.9345 C   0  0  0  0  0  0  0  0  0  0  0  0
   20.6173    7.3697    5.3600 O   0  0  0  0  0  0  0  0  0  0  0  0
   20.5091    8.1001    4.1727 C   0  0  0  0  0  0  0  0  0  0  0  0
   15.9031   10.4325   -6.4553 O   0  0  0  0  0  0  0  0  0  0  0  0
   14.5209   10.4982   -6.3442 C   0  0  0  0  0  0  0  0  0  0  0  0
 26 27  1  0
  2 26  1  0
 28 29  1  0
 20 28  1  0
  1  2  2  0
  2  3  1  0
  3  4  2  0
  4  5  1  0
  5  6  2  0
  6  1  1  0
  4  7  1  0
  7  8  1  0
  7  9  2  0
  8 10  1  0
 10 11  1  0
 11 12  2  0
 12 13  1  0
 13 14  2  0
 14 15  1  0
 15 16  2  0
 16 11  1  0
 14 17  1  0
 18 17  1  6
 18 19  1  0
 19 20  1  0
 19 21  2  0
 20 22  1  0
 18 23  1  0
 23 24  1  0
 24 25  1  0
M  STY  2   1 SUP   2 SUP
M  SLB  2   1   1   2   2
M  SAL   1  2  26  27
M  SBL   1  1   2
M  SMT   1 OCH3
M  SBV   1   2    0.7144    0.4125
M  SAL   2  2  28  29
M  SBL   2  1   4
M  SMT   2 OCH3
M  SBV   2   4   -0.7144   -0.4125
M  END
$$$$
