
     RDKit          3D

 29 30  0  2  0  0  0  0  0  0999 V2000
   19.6440    7.7686    3.2631 C   0  0  0  0  0  0  0  0  0  0  0  0
   19.0992    6.5281    3.0346 C   0  0  0  0  0  0  0  0  0  0  0  0
   18.5068    6.2548    1.8301 C   0  0  0  0  0  0  0  0  0  0  0  0
   18.4210    7.1888    0.7899 C   0  0  0  0  0  0  0  0  0  0  0  0
   18.9786    8.4099    1.0668 C   0  0  0  0  0  0  0  0  0  0  0  0
   19.5891    8.7204    2.2828 C   0  0  0  0  0  0  0  0  0  0  0  0
   17.7774    6.8155   -0.4504 C   0  0  0  0  0  0  0  0  0  0  0  0
   17.6583    7.5863   -1.6821 C   0  0  0  0  0  0  0  0  0  0  0  0
   17.2246    5.6461   -0.5034 O   0  0  0  0  0  0  0  0  0  0  0  0
   17.3513    6.9042   -2.8434 O   0  0  0  0  0  0  0  0  0  0  0  0
   17.3340    7.6066   -4.0542 C   0  0  0  0  0  0  0  0  0  0  0  0
   16.3945    8.5561   -4.3188 C   0  0  0  0  0  0  0  0  0  0  0  0
   16.4012    9.2323   -5.5193 C   0  0  0  0  0  0  0  0  0  0  0  0
   17.3310    9.0017   -6.5060 C   0  0  0  0  0  0  0  0  0  0  0  0
   18.2815    8.0395   -6.2357 C   0  0  0  0  0  0  0  0  0  0  0  0
   18.2919    7.3455   -5.0293 C   0  0  0  0  0  0  0  0  0  0  0  0
   17.3061    9.7386   -7.7601 C   0  0  0  0  0  0  0  0  0  0  0  0
   16.3981    9.1892   -8.8259 C   0  0  1  0  0  0  0  0  0  0  0  0
   16.2996   10.0226  -10.0337 C   0  0  0  0  0  0  0  0  0  0  0  0
   15.2569   10.9609  -10.1637 N   0  0  0  0  0  0  0  0  0  0  0  0
   17.1309    9.9149  -10.9578 O   0  0  0  0  0  0  0  0  0  0  0  0
   15.1065   11.7679  -11.3635 C   0  0  0  0  0  0  0  0  0  0  0  0
   16.6443    7.8542   -9.1108 O   0  0  0  0  0  0  0  0  0  0  0  0
   15.8544    7.3269  -10.0937 C   0  0  0  0  0  0  0  0  0  0  0  0
   14.7267    8.3025  -10.3627 C   0  0  0  0  0  0  0  0  0  0  0  0
   19.1225    5.5162    3.9912 O   0  0  0  0  0  0  0  0  0  0  0  0
   18.2920    4.3919    3.9555 C   0  0  0  0  0  0  0  0  0  0  0  0
   14.3784   11.1040   -9.1349 O   0  0  0  0  0  0  0  0  0  0  0  0
   14.8041   12.0630   -8.2260 C   0  0  0  0  0  0  0  0  0  0  0  0
 26 27  1  0
  2 26  1  0
 28 29  1  0
 20 28  1  0
  1  2  2  0
  2  3  1  0
  3  4  2  0
  4  5  1  0
  5  6  2  0
  6  1  1  0
  4  7  1  0
  7  8  1  0
  7  9  2  0
  8 10  1  0
 10 11  1  0
 11 12  2  0
 12 13  1  0
 13 14  2  0
 14 15  1  0
 15 16  2  0
 16 11  1  0
 14 17  1  0
 18 17  1  1
 18 19  1  0
 19 20  1  0
 19 21  2  0
 20 22  1  0
 18 23  1  0
 23 24  1  0
 24 25  1  0
M  STY  2   1 SUP   2 SUP
M  SLB  2   1   1   2   2
M  SAL   1  2  26  27
M  SBL   1  1   2
M  SMT   1 OCH3
M  SBV   1   2    0.7144    0.4125
M  SAL   2  2  28  29
M  SBL   2  1   4
M  SMT   2 OCH3
M  SBV   2   4   -0.7144   -0.4125
M  END
$$$$
