
     RDKit          3D

 29 30  0  2  0  0  0  0  0  0999 V2000
   18.3675    8.3532   -3.7243 C   0  0  0  0  0  0  0  0  0  0  0  0
   17.2664    7.5670   -3.4849 C   0  0  0  0  0  0  0  0  0  0  0  0
   17.3043    6.6245   -2.4917 C   0  0  0  0  0  0  0  0  0  0  0  0
   18.4279    6.4084   -1.6839 C   0  0  0  0  0  0  0  0  0  0  0  0
   19.4992    7.2170   -1.9618 C   0  0  0  0  0  0  0  0  0  0  0  0
   19.4932    8.1861   -2.9661 C   0  0  0  0  0  0  0  0  0  0  0  0
   18.3812    5.3909   -0.6571 C   0  0  0  0  0  0  0  0  0  0  0  0
   19.0657    5.3642    0.6298 C   0  0  0  0  0  0  0  0  0  0  0  0
   17.6408    4.3533   -0.8833 O   0  0  0  0  0  0  0  0  0  0  0  0
   18.5020    4.6165    1.6454 O   0  0  0  0  0  0  0  0  0  0  0  0
   19.1770    4.5217    2.8682 C   0  0  0  0  0  0  0  0  0  0  0  0
   18.8960    3.5389    3.7678 C   0  0  0  0  0  0  0  0  0  0  0  0
   19.5762    3.4694    4.9640 C   0  0  0  0  0  0  0  0  0  0  0  0
   20.5585    4.3626    5.3225 C   0  0  0  0  0  0  0  0  0  0  0  0
   20.8413    5.3571    4.4097 C   0  0  0  0  0  0  0  0  0  0  0  0
   20.1656    5.4446    3.1960 C   0  0  0  0  0  0  0  0  0  0  0  0
   21.2560    4.2543    6.5946 C   0  0  0  0  0  0  0  0  0  0  0  0
   20.6991    5.0813    7.7206 C   0  0  1  0  0  0  0  0  0  0  0  0
   21.3954    4.9124    9.0050 C   0  0  0  0  0  0  0  0  0  0  0  0
   20.7154    4.3705   10.1134 N   0  0  0  0  0  0  0  0  0  0  0  0
   22.5913    5.2433    9.1355 O   0  0  0  0  0  0  0  0  0  0  0  0
   21.4312    3.9030   11.2892 C   0  0  0  0  0  0  0  0  0  0  0  0
   20.5191    6.4128    7.3761 O   0  0  0  0  0  0  0  0  0  0  0  0
   20.9693    7.3073    8.3063 C   0  0  0  0  0  0  0  0  0  0  0  0
   20.9596    8.6848    7.6753 C   0  0  0  0  0  0  0  0  0  0  0  0
   16.0904    7.6875   -4.2212 O   0  0  0  0  0  0  0  0  0  0  0  0
   15.8390    8.7267   -5.1221 C   0  0  0  0  0  0  0  0  0  0  0  0
   19.3583    4.2891   10.0680 O   0  0  0  0  0  0  0  0  0  0  0  0
   18.9342    3.1894    9.3346 C   0  0  0  0  0  0  0  0  0  0  0  0
 26 27  1  0
  2 26  1  0
 28 29  1  0
 20 28  1  0
  1  2  2  0
  2  3  1  0
  3  4  2  0
  4  5  1  0
  5  6  2  0
  6  1  1  0
  4  7  1  0
  7  8  1  0
  7  9  2  0
  8 10  1  0
 10 11  1  0
 11 12  2  0
 12 13  1  0
 13 14  2  0
 14 15  1  0
 15 16  2  0
 16 11  1  0
 14 17  1  0
 18 17  1  6
 18 19  1  0
 19 20  1  0
 19 21  2  0
 20 22  1  0
 18 23  1  0
 23 24  1  0
 24 25  1  0
M  STY  2   1 SUP   2 SUP
M  SLB  2   1   1   2   2
M  SAL   1  2  26  27
M  SBL   1  1   2
M  SMT   1 OCH3
M  SBV   1   2    0.7144    0.4125
M  SAL   2  2  28  29
M  SBL   2  1   4
M  SMT   2 OCH3
M  SBV   2   4   -0.7144   -0.4125
M  END
$$$$
