
     RDKit          3D

 29 30  0  2  0  0  0  0  0  0999 V2000
   23.4471    6.4891    2.0515 C   0  0  0  0  0  0  0  0  0  0  0  0
   22.8161    5.2801    2.2192 C   0  0  0  0  0  0  0  0  0  0  0  0
   21.5993    5.0585    1.6305 C   0  0  0  0  0  0  0  0  0  0  0  0
   20.9424    6.0156    0.8469 C   0  0  0  0  0  0  0  0  0  0  0  0
   21.6120    7.2037    0.7099 C   0  0  0  0  0  0  0  0  0  0  0  0
   22.8521    7.4614    1.2962 C   0  0  0  0  0  0  0  0  0  0  0  0
   19.6584    5.6971    0.2623 C   0  0  0  0  0  0  0  0  0  0  0  0
   18.6059    6.6069   -0.1738 C   0  0  0  0  0  0  0  0  0  0  0  0
   19.3785    4.4448    0.0913 O   0  0  0  0  0  0  0  0  0  0  0  0
   18.3497    6.6958   -1.5283 O   0  0  0  0  0  0  0  0  0  0  0  0
   17.2775    7.4844   -1.9620 C   0  0  0  0  0  0  0  0  0  0  0  0
   16.2109    6.9471   -2.6160 C   0  0  0  0  0  0  0  0  0  0  0  0
   15.1690    7.7472   -3.0318 C   0  0  0  0  0  0  0  0  0  0  0  0
   15.1349    9.1057   -2.8211 C   0  0  0  0  0  0  0  0  0  0  0  0
   16.2164    9.6477   -2.1586 C   0  0  0  0  0  0  0  0  0  0  0  0
   17.2786    8.8567   -1.7305 C   0  0  0  0  0  0  0  0  0  0  0  0
   14.0149    9.9165   -3.2737 C   0  0  0  0  0  0  0  0  0  0  0  0
   14.2904   10.8216   -4.4428 C   0  0  1  0  0  0  0  0  0  0  0  0
   14.3598   10.1367   -5.7425 C   0  0  0  0  0  0  0  0  0  0  0  0
   14.9529   10.7758   -6.8490 N   0  0  0  0  0  0  0  0  0  0  0  0
   13.8985    8.9866   -5.8878 O   0  0  0  0  0  0  0  0  0  0  0  0
   15.1311   10.0883   -8.1175 C   0  0  0  0  0  0  0  0  0  0  0  0
   13.4702   11.9400   -4.4661 O   0  0  0  0  0  0  0  0  0  0  0  0
   12.1797   11.7075   -4.0804 C   0  0  0  0  0  0  0  0  0  0  0  0
   12.1876   10.5720   -3.0773 C   0  0  0  0  0  0  0  0  0  0  0  0
   23.3687    4.2497    2.9758 O   0  0  0  0  0  0  0  0  0  0  0  0
   24.7397    4.1028    3.2074 C   0  0  0  0  0  0  0  0  0  0  0  0
   15.3632   12.0656   -6.7126 O   0  0  0  0  0  0  0  0  0  0  0  0
   14.5116   12.7910   -5.8906 C   0  0  0  0  0  0  0  0  0  0  0  0
 26 27  1  0
  2 26  1  0
 28 29  1  0
 20 28  1  0
  1  2  2  0
  2  3  1  0
  3  4  2  0
  4  5  1  0
  5  6  2  0
  6  1  1  0
  4  7  1  0
  7  8  1  0
  7  9  2  0
  8 10  1  0
 10 11  1  0
 11 12  2  0
 12 13  1  0
 13 14  2  0
 14 15  1  0
 15 16  2  0
 16 11  1  0
 14 17  1  0
 18 17  1  1
 18 19  1  0
 19 20  1  0
 19 21  2  0
 20 22  1  0
 18 23  1  0
 23 24  1  0
 24 25  1  0
M  STY  2   1 SUP   2 SUP
M  SLB  2   1   1   2   2
M  SAL   1  2  26  27
M  SBL   1  1   2
M  SMT   1 OCH3
M  SBV   1   2    0.7144    0.4125
M  SAL   2  2  28  29
M  SBL   2  1   4
M  SMT   2 OCH3
M  SBV   2   4   -0.7144   -0.4125
M  END
$$$$
