
     RDKit          3D

 29 30  0  2  0  0  0  0  0  0999 V2000
   14.5171    9.4318  -10.0679 C   0  0  0  0  0  0  0  0  0  0  0  0
   15.8618    9.6670  -10.2241 C   0  0  0  0  0  0  0  0  0  0  0  0
   16.7183    9.4485   -9.1777 C   0  0  0  0  0  0  0  0  0  0  0  0
   16.2944    8.9873   -7.9250 C   0  0  0  0  0  0  0  0  0  0  0  0
   14.9456    8.7679   -7.8199 C   0  0  0  0  0  0  0  0  0  0  0  0
   14.0464    8.9805   -8.8660 C   0  0  0  0  0  0  0  0  0  0  0  0
   17.2680    8.7837   -6.8749 C   0  0  0  0  0  0  0  0  0  0  0  0
   17.3009    7.7442   -5.8532 C   0  0  0  0  0  0  0  0  0  0  0  0
   18.2531    9.6210   -6.8087 O   0  0  0  0  0  0  0  0  0  0  0  0
   18.3173    7.7893   -4.9188 O   0  0  0  0  0  0  0  0  0  0  0  0
   18.1171    7.1812   -3.6739 C   0  0  0  0  0  0  0  0  0  0  0  0
   16.8710    6.8789   -3.2158 C   0  0  0  0  0  0  0  0  0  0  0  0
   16.7033    6.2802   -1.9862 C   0  0  0  0  0  0  0  0  0  0  0  0
   17.7532    5.9554   -1.1594 C   0  0  0  0  0  0  0  0  0  0  0  0
   19.0144    6.2626   -1.6257 C   0  0  0  0  0  0  0  0  0  0  0  0
   19.2050    6.8674   -2.8646 C   0  0  0  0  0  0  0  0  0  0  0  0
   17.5352    5.3214    0.1317 C   0  0  0  0  0  0  0  0  0  0  0  0
   17.5308    6.2410    1.3218 C   0  0  1  0  0  0  0  0  0  0  0  0
   17.4906    5.5561    2.6228 C   0  0  0  0  0  0  0  0  0  0  0  0
   16.3917    5.7382    3.4852 N   0  0  0  0  0  0  0  0  0  0  0  0
   18.4212    4.8076    2.9835 O   0  0  0  0  0  0  0  0  0  0  0  0
   16.2744    5.0001    4.7321 C   0  0  0  0  0  0  0  0  0  0  0  0
   18.5158    7.2154    1.2559 O   0  0  0  0  0  0  0  0  0  0  0  0
   18.6295    7.9865    2.3787 C   0  0  0  0  0  0  0  0  0  0  0  0
   19.9973    7.7381    2.9814 C   0  0  0  0  0  0  0  0  0  0  0  0
   16.4038   10.1267  -11.4218 O   0  0  0  0  0  0  0  0  0  0  0  0
   17.6541   10.7442  -11.5242 C   0  0  0  0  0  0  0  0  0  0  0  0
   15.4261    6.6282    3.1299 O   0  0  0  0  0  0  0  0  0  0  0  0
   14.2668    5.9887    2.7128 C   0  0  0  0  0  0  0  0  0  0  0  0
 26 27  1  0
  2 26  1  0
 28 29  1  0
 20 28  1  0
  1  2  2  0
  2  3  1  0
  3  4  2  0
  4  5  1  0
  5  6  2  0
  6  1  1  0
  4  7  1  0
  7  8  1  0
  7  9  2  0
  8 10  1  0
 10 11  1  0
 11 12  2  0
 12 13  1  0
 13 14  2  0
 14 15  1  0
 15 16  2  0
 16 11  1  0
 14 17  1  0
 18 17  1  6
 18 19  1  0
 19 20  1  0
 19 21  2  0
 20 22  1  0
 18 23  1  0
 23 24  1  0
 24 25  1  0
M  STY  2   1 SUP   2 SUP
M  SLB  2   1   1   2   2
M  SAL   1  2  26  27
M  SBL   1  1   2
M  SMT   1 OCH3
M  SBV   1   2    0.7144    0.4125
M  SAL   2  2  28  29
M  SBL   2  1   4
M  SMT   2 OCH3
M  SBV   2   4   -0.7144   -0.4125
M  END
$$$$
