
     RDKit          3D

 29 30  0  2  0  0  0  0  0  0999 V2000
   17.3541    9.1861  -11.0951 C   0  0  0  0  0  0  0  0  0  0  0  0
   16.0099    9.1323  -10.8161 C   0  0  0  0  0  0  0  0  0  0  0  0
   15.5877    8.8008   -9.5559 C   0  0  0  0  0  0  0  0  0  0  0  0
   16.4675    8.5056   -8.5068 C   0  0  0  0  0  0  0  0  0  0  0  0
   17.7964    8.5730   -8.8354 C   0  0  0  0  0  0  0  0  0  0  0  0
   18.2594    8.9074  -10.1088 C   0  0  0  0  0  0  0  0  0  0  0  0
   15.9349    8.1648   -7.2060 C   0  0  0  0  0  0  0  0  0  0  0  0
   16.6255    7.5745   -6.0658 C   0  0  0  0  0  0  0  0  0  0  0  0
   14.6800    8.4049   -6.9971 O   0  0  0  0  0  0  0  0  0  0  0  0
   16.2026    7.9304   -4.7998 O   0  0  0  0  0  0  0  0  0  0  0  0
   17.0228    7.6317   -3.7054 C   0  0  0  0  0  0  0  0  0  0  0  0
   18.1829    6.9332   -3.8485 C   0  0  0  0  0  0  0  0  0  0  0  0
   18.9710    6.6532   -2.7535 C   0  0  0  0  0  0  0  0  0  0  0  0
   18.6499    7.0485   -1.4761 C   0  0  0  0  0  0  0  0  0  0  0  0
   17.4744    7.7558   -1.3337 C   0  0  0  0  0  0  0  0  0  0  0  0
   16.6644    8.0488   -2.4270 C   0  0  0  0  0  0  0  0  0  0  0  0
   19.5100    6.7352   -0.3453 C   0  0  0  0  0  0  0  0  0  0  0  0
   18.8175    6.1964    0.8762 C   0  0  1  0  0  0  0  0  0  0  0  0
   18.0288    4.9770    0.6433 C   0  0  0  0  0  0  0  0  0  0  0  0
   16.8234    4.7691    1.3420 N   0  0  0  0  0  0  0  0  0  0  0  0
   18.4098    4.1114   -0.1705 O   0  0  0  0  0  0  0  0  0  0  0  0
   16.0481    3.5509    1.1731 C   0  0  0  0  0  0  0  0  0  0  0  0
   19.6595    6.0923    1.9736 O   0  0  0  0  0  0  0  0  0  0  0  0
   20.4484    7.1869    2.1915 C   0  0  0  0  0  0  0  0  0  0  0  0
   19.5484    8.3454    2.5708 C   0  0  0  0  0  0  0  0  0  0  0  0
   15.0380    9.4049  -11.7757 O   0  0  0  0  0  0  0  0  0  0  0  0
   13.6635    9.2924  -11.5455 C   0  0  0  0  0  0  0  0  0  0  0  0
   16.3874    5.7390    2.1904 O   0  0  0  0  0  0  0  0  0  0  0  0
   16.7326    5.4630    3.5063 C   0  0  0  0  0  0  0  0  0  0  0  0
 26 27  1  0
  2 26  1  0
 28 29  1  0
 20 28  1  0
  1  2  2  0
  2  3  1  0
  3  4  2  0
  4  5  1  0
  5  6  2  0
  6  1  1  0
  4  7  1  0
  7  8  1  0
  7  9  2  0
  8 10  1  0
 10 11  1  0
 11 12  2  0
 12 13  1  0
 13 14  2  0
 14 15  1  0
 15 16  2  0
 16 11  1  0
 14 17  1  0
 18 17  1  6
 18 19  1  0
 19 20  1  0
 19 21  2  0
 20 22  1  0
 18 23  1  0
 23 24  1  0
 24 25  1  0
M  STY  2   1 SUP   2 SUP
M  SLB  2   1   1   2   2
M  SAL   1  2  26  27
M  SBL   1  1   2
M  SMT   1 OCH3
M  SBV   1   2    0.7144    0.4125
M  SAL   2  2  28  29
M  SBL   2  1   4
M  SMT   2 OCH3
M  SBV   2   4   -0.7144   -0.4125
M  END
$$$$
