
     RDKit          3D

 29 30  0  2  0  0  0  0  0  0999 V2000
   15.0574   11.7857   -6.9251 C   0  0  0  0  0  0  0  0  0  0  0  0
   15.2341   10.5548   -7.5095 C   0  0  0  0  0  0  0  0  0  0  0  0
   15.4699    9.4558   -6.7267 C   0  0  0  0  0  0  0  0  0  0  0  0
   15.5436    9.5130   -5.3292 C   0  0  0  0  0  0  0  0  0  0  0  0
   15.3607   10.7619   -4.7949 C   0  0  0  0  0  0  0  0  0  0  0  0
   15.1189   11.9012   -5.5639 C   0  0  0  0  0  0  0  0  0  0  0  0
   15.7967    8.3021   -4.5798 C   0  0  0  0  0  0  0  0  0  0  0  0
   16.2519    8.1628   -3.2018 C   0  0  0  0  0  0  0  0  0  0  0  0
   15.6015    7.1761   -5.1880 O   0  0  0  0  0  0  0  0  0  0  0  0
   16.2770    6.8944   -2.6552 O   0  0  0  0  0  0  0  0  0  0  0  0
   17.3356    6.5451   -1.8085 C   0  0  0  0  0  0  0  0  0  0  0  0
   17.7576    7.3698   -0.8106 C   0  0  0  0  0  0  0  0  0  0  0  0
   18.8024    7.0004    0.0082 C   0  0  0  0  0  0  0  0  0  0  0  0
   19.4727    5.8067   -0.1218 C   0  0  0  0  0  0  0  0  0  0  0  0
   19.0435    4.9731   -1.1333 C   0  0  0  0  0  0  0  0  0  0  0  0
   17.9902    5.3277   -1.9710 C   0  0  0  0  0  0  0  0  0  0  0  0
   20.5703    5.4516    0.7646 C   0  0  0  0  0  0  0  0  0  0  0  0
   20.2017    5.2177    2.2039 C   0  0  1  0  0  0  0  0  0  0  0  0
   19.2970    4.0795    2.4256 C   0  0  0  0  0  0  0  0  0  0  0  0
   18.9534    3.6927    3.7359 N   0  0  0  0  0  0  0  0  0  0  0  0
   18.8210    3.4409    1.4652 O   0  0  0  0  0  0  0  0  0  0  0  0
   18.5326    2.3351    4.0412 C   0  0  0  0  0  0  0  0  0  0  0  0
   21.3019    5.2041    3.0486 O   0  0  0  0  0  0  0  0  0  0  0  0
   22.2956    6.0765    2.7030 C   0  0  0  0  0  0  0  0  0  0  0  0
   21.7071    7.4726    2.6807 C   0  0  0  0  0  0  0  0  0  0  0  0
   15.1833   10.3706   -8.8890 O   0  0  0  0  0  0  0  0  0  0  0  0
   14.2672   11.0136   -9.7271 C   0  0  0  0  0  0  0  0  0  0  0  0
   19.0219    4.6214    4.7276 O   0  0  0  0  0  0  0  0  0  0  0  0
   18.3468    5.7858    4.3879 C   0  0  0  0  0  0  0  0  0  0  0  0
 26 27  1  0
  2 26  1  0
 28 29  1  0
 20 28  1  0
  1  2  2  0
  2  3  1  0
  3  4  2  0
  4  5  1  0
  5  6  2  0
  6  1  1  0
  4  7  1  0
  7  8  1  0
  7  9  2  0
  8 10  1  0
 10 11  1  0
 11 12  2  0
 12 13  1  0
 13 14  2  0
 14 15  1  0
 15 16  2  0
 16 11  1  0
 14 17  1  0
 18 17  1  6
 18 19  1  0
 19 20  1  0
 19 21  2  0
 20 22  1  0
 18 23  1  0
 23 24  1  0
 24 25  1  0
M  STY  2   1 SUP   2 SUP
M  SLB  2   1   1   2   2
M  SAL   1  2  26  27
M  SBL   1  1   2
M  SMT   1 OCH3
M  SBV   1   2    0.7144    0.4125
M  SAL   2  2  28  29
M  SBL   2  1   4
M  SMT   2 OCH3
M  SBV   2   4   -0.7144   -0.4125
M  END
$$$$
