
     RDKit          3D

 29 30  0  2  0  0  0  0  0  0999 V2000
   20.8409    4.5762    6.0790 C   0  0  0  0  0  0  0  0  0  0  0  0
   20.1433    5.6570    5.5963 C   0  0  0  0  0  0  0  0  0  0  0  0
   19.3984    5.5328    4.4536 C   0  0  0  0  0  0  0  0  0  0  0  0
   19.3025    4.3383    3.7284 C   0  0  0  0  0  0  0  0  0  0  0  0
   20.0158    3.2907    4.2503 C   0  0  0  0  0  0  0  0  0  0  0  0
   20.7840    3.3840    5.4117 C   0  0  0  0  0  0  0  0  0  0  0  0
   18.4924    4.2958    2.5310 C   0  0  0  0  0  0  0  0  0  0  0  0
   18.5052    5.2039    1.3906 C   0  0  0  0  0  0  0  0  0  0  0  0
   17.6319    3.3337    2.4306 O   0  0  0  0  0  0  0  0  0  0  0  0
   17.6431    4.9387    0.3444 O   0  0  0  0  0  0  0  0  0  0  0  0
   17.6319    5.8031   -0.7567 C   0  0  0  0  0  0  0  0  0  0  0  0
   16.5844    6.6376   -1.0023 C   0  0  0  0  0  0  0  0  0  0  0  0
   16.6000    7.4782   -2.0940 C   0  0  0  0  0  0  0  0  0  0  0  0
   17.6452    7.5313   -2.9862 C   0  0  0  0  0  0  0  0  0  0  0  0
   18.7050    6.6851   -2.7353 C   0  0  0  0  0  0  0  0  0  0  0  0
   18.7085    5.8285   -1.6383 C   0  0  0  0  0  0  0  0  0  0  0  0
   17.6253    8.4348   -4.1263 C   0  0  0  0  0  0  0  0  0  0  0  0
   16.8367    7.9686   -5.3191 C   0  0  1  0  0  0  0  0  0  0  0  0
   15.4247    8.3803   -5.3167 C   0  0  0  0  0  0  0  0  0  0  0  0
   14.4738    7.6530   -6.0593 N   0  0  0  0  0  0  0  0  0  0  0  0
   15.0463    9.3730   -4.6625 O   0  0  0  0  0  0  0  0  0  0  0  0
   13.0873    8.0817   -6.1444 C   0  0  0  0  0  0  0  0  0  0  0  0
   17.4725    8.2305   -6.5238 O   0  0  0  0  0  0  0  0  0  0  0  0
   17.3468    9.5178   -6.9656 C   0  0  0  0  0  0  0  0  0  0  0  0
   18.1917   10.4043   -6.0733 C   0  0  0  0  0  0  0  0  0  0  0  0
   20.1598    6.8977    6.2289 O   0  0  0  0  0  0  0  0  0  0  0  0
   21.1287    7.2839    7.1601 C   0  0  0  0  0  0  0  0  0  0  0  0
   14.8767    6.5261   -6.7061 O   0  0  0  0  0  0  0  0  0  0  0  0
   14.6357    5.3867   -5.9506 C   0  0  0  0  0  0  0  0  0  0  0  0
 26 27  1  0
  2 26  1  0
 28 29  1  0
 20 28  1  0
  1  2  2  0
  2  3  1  0
  3  4  2  0
  4  5  1  0
  5  6  2  0
  6  1  1  0
  4  7  1  0
  7  8  1  0
  7  9  2  0
  8 10  1  0
 10 11  1  0
 11 12  2  0
 12 13  1  0
 13 14  2  0
 14 15  1  0
 15 16  2  0
 16 11  1  0
 14 17  1  0
 18 17  1  1
 18 19  1  0
 19 20  1  0
 19 21  2  0
 20 22  1  0
 18 23  1  0
 23 24  1  0
 24 25  1  0
M  STY  2   1 SUP   2 SUP
M  SLB  2   1   1   2   2
M  SAL   1  2  26  27
M  SBL   1  1   2
M  SMT   1 OCH3
M  SBV   1   2    0.7144    0.4125
M  SAL   2  2  28  29
M  SBL   2  1   4
M  SMT   2 OCH3
M  SBV   2   4   -0.7144   -0.4125
M  END
$$$$
