
     RDKit          3D

 29 30  0  2  0  0  0  0  0  0999 V2000
   17.5834    9.7222   -9.9191 C   0  0  0  0  0  0  0  0  0  0  0  0
   16.5831    8.8314  -10.2252 C   0  0  0  0  0  0  0  0  0  0  0  0
   16.0021    8.0902   -9.2306 C   0  0  0  0  0  0  0  0  0  0  0  0
   16.3766    8.1883   -7.8846 C   0  0  0  0  0  0  0  0  0  0  0  0
   17.3775    9.0897   -7.6310 C   0  0  0  0  0  0  0  0  0  0  0  0
   17.9899    9.8598   -8.6208 C   0  0  0  0  0  0  0  0  0  0  0  0
   15.7095    7.3669   -6.8986 C   0  0  0  0  0  0  0  0  0  0  0  0
   16.1331    7.0509   -5.5399 C   0  0  0  0  0  0  0  0  0  0  0  0
   14.5836    6.8267   -7.2400 O   0  0  0  0  0  0  0  0  0  0  0  0
   17.4610    7.2497   -5.2150 O   0  0  0  0  0  0  0  0  0  0  0  0
   17.8364    7.2285   -3.8666 C   0  0  0  0  0  0  0  0  0  0  0  0
   17.5695    6.1607   -3.0648 C   0  0  0  0  0  0  0  0  0  0  0  0
   17.9507    6.1669   -1.7408 C   0  0  0  0  0  0  0  0  0  0  0  0
   18.6087    7.2220   -1.1535 C   0  0  0  0  0  0  0  0  0  0  0  0
   18.8779    8.3023   -1.9675 C   0  0  0  0  0  0  0  0  0  0  0  0
   18.5013    8.3157   -3.3073 C   0  0  0  0  0  0  0  0  0  0  0  0
   18.9969    7.1895    0.2483 C   0  0  0  0  0  0  0  0  0  0  0  0
   18.1062    7.9481    1.1934 C   0  0  1  0  0  0  0  0  0  0  0  0
   16.7486    7.3985    1.3272 C   0  0  0  0  0  0  0  0  0  0  0  0
   15.6813    8.2334    1.7125 N   0  0  0  0  0  0  0  0  0  0  0  0
   16.5190    6.1927    1.1039 O   0  0  0  0  0  0  0  0  0  0  0  0
   14.3437    7.7061    1.9268 C   0  0  0  0  0  0  0  0  0  0  0  0
   18.7078    8.2023    2.4171 O   0  0  0  0  0  0  0  0  0  0  0  0
   19.0274    7.0854    3.1371 C   0  0  0  0  0  0  0  0  0  0  0  0
   20.3396    6.5449    2.6061 C   0  0  0  0  0  0  0  0  0  0  0  0
   16.1241    8.6446  -11.5268 O   0  0  0  0  0  0  0  0  0  0  0  0
   15.5773    7.4459  -11.9949 C   0  0  0  0  0  0  0  0  0  0  0  0
   15.9231    9.5611    1.8842 O   0  0  0  0  0  0  0  0  0  0  0  0
   14.9432   10.3426    1.2874 C   0  0  0  0  0  0  0  0  0  0  0  0
 26 27  1  0
  2 26  1  0
 28 29  1  0
 20 28  1  0
  1  2  2  0
  2  3  1  0
  3  4  2  0
  4  5  1  0
  5  6  2  0
  6  1  1  0
  4  7  1  0
  7  8  1  0
  7  9  2  0
  8 10  1  0
 10 11  1  0
 11 12  2  0
 12 13  1  0
 13 14  2  0
 14 15  1  0
 15 16  2  0
 16 11  1  0
 14 17  1  0
 18 17  1  1
 18 19  1  0
 19 20  1  0
 19 21  2  0
 20 22  1  0
 18 23  1  0
 23 24  1  0
 24 25  1  0
M  STY  2   1 SUP   2 SUP
M  SLB  2   1   1   2   2
M  SAL   1  2  26  27
M  SBL   1  1   2
M  SMT   1 OCH3
M  SBV   1   2    0.7144    0.4125
M  SAL   2  2  28  29
M  SBL   2  1   4
M  SMT   2 OCH3
M  SBV   2   4   -0.7144   -0.4125
M  END
$$$$
