
     RDKit          3D

 29 30  0  2  0  0  0  0  0  0999 V2000
   20.6325    4.1585    8.0779 C   0  0  0  0  0  0  0  0  0  0  0  0
   20.7238    3.0584    7.2599 C   0  0  0  0  0  0  0  0  0  0  0  0
   20.6390    3.2100    5.9011 C   0  0  0  0  0  0  0  0  0  0  0  0
   20.4601    4.4522    5.2792 C   0  0  0  0  0  0  0  0  0  0  0  0
   20.3748    5.5174    6.1376 C   0  0  0  0  0  0  0  0  0  0  0  0
   20.4573    5.3971    7.5256 C   0  0  0  0  0  0  0  0  0  0  0  0
   20.3810    4.5210    3.8367 C   0  0  0  0  0  0  0  0  0  0  0  0
   19.5570    5.3954    3.0110 C   0  0  0  0  0  0  0  0  0  0  0  0
   21.1307    3.7095    3.1620 O   0  0  0  0  0  0  0  0  0  0  0  0
   20.1865    6.4129    2.3204 O   0  0  0  0  0  0  0  0  0  0  0  0
   19.7268    6.7450    1.0406 C   0  0  0  0  0  0  0  0  0  0  0  0
   19.3445    5.7919    0.1464 C   0  0  0  0  0  0  0  0  0  0  0  0
   18.8960    6.1475   -1.1070 C   0  0  0  0  0  0  0  0  0  0  0  0
   18.8055    7.4530   -1.5299 C   0  0  0  0  0  0  0  0  0  0  0  0
   19.1933    8.4165   -0.6225 C   0  0  0  0  0  0  0  0  0  0  0  0
   19.6493    8.0780    0.6482 C   0  0  0  0  0  0  0  0  0  0  0  0
   18.3243    7.7882   -2.8613 C   0  0  0  0  0  0  0  0  0  0  0  0
   16.8302    7.8441   -3.0240 C   0  0  1  0  0  0  0  0  0  0  0  0
   16.1700    8.9026   -2.2450 C   0  0  0  0  0  0  0  0  0  0  0  0
   15.2501    8.5675   -1.2321 N   0  0  0  0  0  0  0  0  0  0  0  0
   16.4105   10.1069   -2.4651 O   0  0  0  0  0  0  0  0  0  0  0  0
   14.4787    9.5864   -0.5393 C   0  0  0  0  0  0  0  0  0  0  0  0
   16.4295    7.8226   -4.3518 O   0  0  0  0  0  0  0  0  0  0  0  0
   16.3175    6.5722   -4.8923 C   0  0  0  0  0  0  0  0  0  0  0  0
   17.3897    6.4220   -5.9524 C   0  0  0  0  0  0  0  0  0  0  0  0
   20.9023    1.7708    7.7596 O   0  0  0  0  0  0  0  0  0  0  0  0
   21.1037    0.6447    6.9557 C   0  0  0  0  0  0  0  0  0  0  0  0
   15.0907    7.2565   -0.9057 O   0  0  0  0  0  0  0  0  0  0  0  0
   14.1162    6.6483   -1.6850 C   0  0  0  0  0  0  0  0  0  0  0  0
 26 27  1  0
  2 26  1  0
 28 29  1  0
 20 28  1  0
  1  2  2  0
  2  3  1  0
  3  4  2  0
  4  5  1  0
  5  6  2  0
  6  1  1  0
  4  7  1  0
  7  8  1  0
  7  9  2  0
  8 10  1  0
 10 11  1  0
 11 12  2  0
 12 13  1  0
 13 14  2  0
 14 15  1  0
 15 16  2  0
 16 11  1  0
 14 17  1  0
 18 17  1  6
 18 19  1  0
 19 20  1  0
 19 21  2  0
 20 22  1  0
 18 23  1  0
 23 24  1  0
 24 25  1  0
M  STY  2   1 SUP   2 SUP
M  SLB  2   1   1   2   2
M  SAL   1  2  26  27
M  SBL   1  1   2
M  SMT   1 OCH3
M  SBV   1   2    0.7144    0.4125
M  SAL   2  2  28  29
M  SBL   2  1   4
M  SMT   2 OCH3
M  SBV   2   4   -0.7144   -0.4125
M  END
$$$$
