
     RDKit          3D

 29 30  0  2  0  0  0  0  0  0999 V2000
   21.7862    5.7295    2.4299 C   0  0  0  0  0  0  0  0  0  0  0  0
   20.5386    5.2272    2.7111 C   0  0  0  0  0  0  0  0  0  0  0  0
   19.5180    5.3940    1.8128 C   0  0  0  0  0  0  0  0  0  0  0  0
   19.6741    6.0635    0.5925 C   0  0  0  0  0  0  0  0  0  0  0  0
   20.9357    6.5454    0.3590 C   0  0  0  0  0  0  0  0  0  0  0  0
   21.9967    6.3925    1.2527 C   0  0  0  0  0  0  0  0  0  0  0  0
   18.5415    6.1939   -0.2975 C   0  0  0  0  0  0  0  0  0  0  0  0
   18.5292    6.2368   -1.7547 C   0  0  0  0  0  0  0  0  0  0  0  0
   17.3692    6.2871    0.2437 O   0  0  0  0  0  0  0  0  0  0  0  0
   17.3766    6.6742   -2.3780 O   0  0  0  0  0  0  0  0  0  0  0  0
   17.4854    7.3628   -3.5919 C   0  0  0  0  0  0  0  0  0  0  0  0
   17.8829    6.7406   -4.7360 C   0  0  0  0  0  0  0  0  0  0  0  0
   17.9812    7.4432   -5.9172 C   0  0  0  0  0  0  0  0  0  0  0  0
   17.6929    8.7840   -6.0198 C   0  0  0  0  0  0  0  0  0  0  0  0
   17.2906    9.4120   -4.8597 C   0  0  0  0  0  0  0  0  0  0  0  0
   17.1849    8.7202   -3.6566 C   0  0  0  0  0  0  0  0  0  0  0  0
   17.8068    9.4904   -7.2865 C   0  0  0  0  0  0  0  0  0  0  0  0
   16.5746    9.4937   -8.1489 C   0  0  1  0  0  0  0  0  0  0  0  0
   15.5137   10.4057   -7.6950 C   0  0  0  0  0  0  0  0  0  0  0  0
   14.3198    9.8896   -7.1540 N   0  0  0  0  0  0  0  0  0  0  0  0
   15.6505   11.6429   -7.7801 O   0  0  0  0  0  0  0  0  0  0  0  0
   13.2501   10.7645   -6.7026 C   0  0  0  0  0  0  0  0  0  0  0  0
   16.8601    9.6289   -9.4996 O   0  0  0  0  0  0  0  0  0  0  0  0
   15.7927    9.4295  -10.3297 C   0  0  0  0  0  0  0  0  0  0  0  0
   15.7668    7.9647  -10.7165 C   0  0  0  0  0  0  0  0  0  0  0  0
   20.2593    4.5428    3.8915 O   0  0  0  0  0  0  0  0  0  0  0  0
   18.9871    4.0796    4.2405 C   0  0  0  0  0  0  0  0  0  0  0  0
   14.1789    8.5400   -7.0580 O   0  0  0  0  0  0  0  0  0  0  0  0
   13.3290    8.0418   -8.0360 C   0  0  0  0  0  0  0  0  0  0  0  0
 26 27  1  0
  2 26  1  0
 28 29  1  0
 20 28  1  0
  1  2  2  0
  2  3  1  0
  3  4  2  0
  4  5  1  0
  5  6  2  0
  6  1  1  0
  4  7  1  0
  7  8  1  0
  7  9  2  0
  8 10  1  0
 10 11  1  0
 11 12  2  0
 12 13  1  0
 13 14  2  0
 14 15  1  0
 15 16  2  0
 16 11  1  0
 14 17  1  0
 18 17  1  1
 18 19  1  0
 19 20  1  0
 19 21  2  0
 20 22  1  0
 18 23  1  0
 23 24  1  0
 24 25  1  0
M  STY  2   1 SUP   2 SUP
M  SLB  2   1   1   2   2
M  SAL   1  2  26  27
M  SBL   1  1   2
M  SMT   1 OCH3
M  SBV   1   2    0.7144    0.4125
M  SAL   2  2  28  29
M  SBL   2  1   4
M  SMT   2 OCH3
M  SBV   2   4   -0.7144   -0.4125
M  END
$$$$
