
     RDKit          3D

 29 30  0  2  0  0  0  0  0  0999 V2000
   14.3378    8.9559  -10.6196 C   0  0  0  0  0  0  0  0  0  0  0  0
   15.6057    9.3847  -10.9297 C   0  0  0  0  0  0  0  0  0  0  0  0
   16.5903    9.3468   -9.9782 C   0  0  0  0  0  0  0  0  0  0  0  0
   16.3763    8.8848   -8.6733 C   0  0  0  0  0  0  0  0  0  0  0  0
   15.0964    8.4686   -8.4140 C   0  0  0  0  0  0  0  0  0  0  0  0
   14.0710    8.4943   -9.3604 C   0  0  0  0  0  0  0  0  0  0  0  0
   17.4738    8.8796   -7.7313 C   0  0  0  0  0  0  0  0  0  0  0  0
   17.6546    8.0460   -6.5490 C   0  0  0  0  0  0  0  0  0  0  0  0
   18.4393    9.7163   -7.9405 O   0  0  0  0  0  0  0  0  0  0  0  0
   18.3716    8.5719   -5.4918 O   0  0  0  0  0  0  0  0  0  0  0  0
   18.1071    8.1057   -4.1986 C   0  0  0  0  0  0  0  0  0  0  0  0
   17.0983    7.2268   -3.9457 C   0  0  0  0  0  0  0  0  0  0  0  0
   16.8604    6.7844   -2.6626 C   0  0  0  0  0  0  0  0  0  0  0  0
   17.6044    7.1883   -1.5788 C   0  0  0  0  0  0  0  0  0  0  0  0
   18.6256    8.0785   -1.8375 C   0  0  0  0  0  0  0  0  0  0  0  0
   18.8821    8.5374   -3.1262 C   0  0  0  0  0  0  0  0  0  0  0  0
   17.3232    6.6963   -0.2389 C   0  0  0  0  0  0  0  0  0  0  0  0
   16.4454    7.5731    0.6112 C   0  0  1  0  0  0  0  0  0  0  0  0
   15.1033    7.8125    0.0592 C   0  0  0  0  0  0  0  0  0  0  0  0
   14.6477    9.1291   -0.1489 N   0  0  0  0  0  0  0  0  0  0  0  0
   14.3499    6.8617   -0.2324 O   0  0  0  0  0  0  0  0  0  0  0  0
   13.2777    9.4042   -0.5499 C   0  0  0  0  0  0  0  0  0  0  0  0
   16.4192    7.1841    1.9423 O   0  0  0  0  0  0  0  0  0  0  0  0
   17.6264    7.2537    2.5795 C   0  0  0  0  0  0  0  0  0  0  0  0
   18.0224    8.7131    2.6755 C   0  0  0  0  0  0  0  0  0  0  0  0
   15.9417    9.8656  -12.1929 O   0  0  0  0  0  0  0  0  0  0  0  0
   17.2074   10.3567  -12.5276 C   0  0  0  0  0  0  0  0  0  0  0  0
   15.5208   10.1563    0.0332 O   0  0  0  0  0  0  0  0  0  0  0  0
   15.2652   10.8444    1.2115 C   0  0  0  0  0  0  0  0  0  0  0  0
 26 27  1  0
  2 26  1  0
 28 29  1  0
 20 28  1  0
  1  2  2  0
  2  3  1  0
  3  4  2  0
  4  5  1  0
  5  6  2  0
  6  1  1  0
  4  7  1  0
  7  8  1  0
  7  9  2  0
  8 10  1  0
 10 11  1  0
 11 12  2  0
 12 13  1  0
 13 14  2  0
 14 15  1  0
 15 16  2  0
 16 11  1  0
 14 17  1  0
 18 17  1  6
 18 19  1  0
 19 20  1  0
 19 21  2  0
 20 22  1  0
 18 23  1  0
 23 24  1  0
 24 25  1  0
M  STY  2   1 SUP   2 SUP
M  SLB  2   1   1   2   2
M  SAL   1  2  26  27
M  SBL   1  1   2
M  SMT   1 OCH3
M  SBV   1   2    0.7144    0.4125
M  SAL   2  2  28  29
M  SBL   2  1   4
M  SMT   2 OCH3
M  SBV   2   4   -0.7144   -0.4125
M  END
$$$$
