
     RDKit          3D

 29 30  0  2  0  0  0  0  0  0999 V2000
   17.4297    9.1924  -10.7685 C   0  0  0  0  0  0  0  0  0  0  0  0
   16.1516    8.8679  -10.3825 C   0  0  0  0  0  0  0  0  0  0  0  0
   15.8970    8.5341   -9.0787 C   0  0  0  0  0  0  0  0  0  0  0  0
   16.8876    8.5029   -8.0890 C   0  0  0  0  0  0  0  0  0  0  0  0
   18.1445    8.8342   -8.5238 C   0  0  0  0  0  0  0  0  0  0  0  0
   18.4374    9.1787   -9.8442 C   0  0  0  0  0  0  0  0  0  0  0  0
   16.5302    8.1389   -6.7356 C   0  0  0  0  0  0  0  0  0  0  0  0
   17.4019    7.7145   -5.6469 C   0  0  0  0  0  0  0  0  0  0  0  0
   15.2757    8.1869   -6.4199 O   0  0  0  0  0  0  0  0  0  0  0  0
   16.8102    7.3166   -4.4638 O   0  0  0  0  0  0  0  0  0  0  0  0
   17.6289    6.9850   -3.3778 C   0  0  0  0  0  0  0  0  0  0  0  0
   18.4073    7.9138   -2.7569 C   0  0  0  0  0  0  0  0  0  0  0  0
   19.2038    7.5594   -1.6898 C   0  0  0  0  0  0  0  0  0  0  0  0
   19.2662    6.2790   -1.1917 C   0  0  0  0  0  0  0  0  0  0  0  0
   18.4769    5.3400   -1.8223 C   0  0  0  0  0  0  0  0  0  0  0  0
   17.6656    5.6778   -2.9016 C   0  0  0  0  0  0  0  0  0  0  0  0
   20.1184    5.9448   -0.0611 C   0  0  0  0  0  0  0  0  0  0  0  0
   19.5609    6.2660    1.2983 C   0  0  1  0  0  0  0  0  0  0  0  0
   18.2552    5.6521    1.5838 C   0  0  0  0  0  0  0  0  0  0  0  0
   17.0666    6.3114    1.2139 N   0  0  0  0  0  0  0  0  0  0  0  0
   18.1770    4.5451    2.1540 O   0  0  0  0  0  0  0  0  0  0  0  0
   15.7605    5.7609    1.5373 C   0  0  0  0  0  0  0  0  0  0  0  0
   20.4807    6.0757    2.3190 O   0  0  0  0  0  0  0  0  0  0  0  0
   20.7975    7.2068    3.0179 C   0  0  0  0  0  0  0  0  0  0  0  0
   19.5269    8.0089    3.2127 C   0  0  0  0  0  0  0  0  0  0  0  0
   15.0823    8.8629  -11.2748 O   0  0  0  0  0  0  0  0  0  0  0  0
   14.3783    7.7114  -11.6399 C   0  0  0  0  0  0  0  0  0  0  0  0
   17.1586    7.4892    0.5394 O   0  0  0  0  0  0  0  0  0  0  0  0
   17.1622    8.5763    1.4027 C   0  0  0  0  0  0  0  0  0  0  0  0
 26 27  1  0
  2 26  1  0
 28 29  1  0
 20 28  1  0
  1  2  2  0
  2  3  1  0
  3  4  2  0
  4  5  1  0
  5  6  2  0
  6  1  1  0
  4  7  1  0
  7  8  1  0
  7  9  2  0
  8 10  1  0
 10 11  1  0
 11 12  2  0
 12 13  1  0
 13 14  2  0
 14 15  1  0
 15 16  2  0
 16 11  1  0
 14 17  1  0
 18 17  1  6
 18 19  1  0
 19 20  1  0
 19 21  2  0
 20 22  1  0
 18 23  1  0
 23 24  1  0
 24 25  1  0
M  STY  2   1 SUP   2 SUP
M  SLB  2   1   1   2   2
M  SAL   1  2  26  27
M  SBL   1  1   2
M  SMT   1 OCH3
M  SBV   1   2    0.7144    0.4125
M  SAL   2  2  28  29
M  SBL   2  1   4
M  SMT   2 OCH3
M  SBV   2   4   -0.7144   -0.4125
M  END
$$$$
