
     RDKit          3D

 29 30  0  2  0  0  0  0  0  0999 V2000
   20.6177    4.5851    5.3547 C   0  0  0  0  0  0  0  0  0  0  0  0
   20.3798    3.3858    4.7278 C   0  0  0  0  0  0  0  0  0  0  0  0
   19.7190    3.3626    3.5282 C   0  0  0  0  0  0  0  0  0  0  0  0
   19.2589    4.5188    2.8853 C   0  0  0  0  0  0  0  0  0  0  0  0
   19.5204    5.6885    3.5502 C   0  0  0  0  0  0  0  0  0  0  0  0
   20.1909    5.7466    4.7728 C   0  0  0  0  0  0  0  0  0  0  0  0
   18.5695    4.4025    1.6191 C   0  0  0  0  0  0  0  0  0  0  0  0
   18.5985    5.3119    0.4800 C   0  0  0  0  0  0  0  0  0  0  0  0
   17.8191    3.3620    1.4455 O   0  0  0  0  0  0  0  0  0  0  0  0
   17.9286    4.9319   -0.6667 O   0  0  0  0  0  0  0  0  0  0  0  0
   17.9662    5.7772   -1.7819 C   0  0  0  0  0  0  0  0  0  0  0  0
   17.4635    7.0420   -1.7401 C   0  0  0  0  0  0  0  0  0  0  0  0
   17.5139    7.8525   -2.8532 C   0  0  0  0  0  0  0  0  0  0  0  0
   18.0601    7.4519   -4.0500 C   0  0  0  0  0  0  0  0  0  0  0  0
   18.5686    6.1704   -4.0899 C   0  0  0  0  0  0  0  0  0  0  0  0
   18.5273    5.3361   -2.9766 C   0  0  0  0  0  0  0  0  0  0  0  0
   18.0966    8.3386   -5.2028 C   0  0  0  0  0  0  0  0  0  0  0  0
   16.8458    8.3823   -6.0367 C   0  0  1  0  0  0  0  0  0  0  0  0
   15.6508    8.8547   -5.3213 C   0  0  0  0  0  0  0  0  0  0  0  0
   14.4004    8.8787   -5.9698 N   0  0  0  0  0  0  0  0  0  0  0  0
   15.7218    9.2398   -4.1367 O   0  0  0  0  0  0  0  0  0  0  0  0
   14.1897    8.2005   -7.2382 C   0  0  0  0  0  0  0  0  0  0  0  0
   17.0305    9.0177   -7.2558 O   0  0  0  0  0  0  0  0  0  0  0  0
   18.2877    8.8939   -7.7776 C   0  0  0  0  0  0  0  0  0  0  0  0
   18.2247    7.9029   -8.9221 C   0  0  0  0  0  0  0  0  0  0  0  0
   20.7885    2.1687    5.2676 O   0  0  0  0  0  0  0  0  0  0  0  0
   21.5255    2.0497    6.4498 C   0  0  0  0  0  0  0  0  0  0  0  0
   13.3763    9.5558   -5.3838 O   0  0  0  0  0  0  0  0  0  0  0  0
   13.0573   10.7110   -6.0843 C   0  0  0  0  0  0  0  0  0  0  0  0
 26 27  1  0
  2 26  1  0
 28 29  1  0
 20 28  1  0
  1  2  2  0
  2  3  1  0
  3  4  2  0
  4  5  1  0
  5  6  2  0
  6  1  1  0
  4  7  1  0
  7  8  1  0
  7  9  2  0
  8 10  1  0
 10 11  1  0
 11 12  2  0
 12 13  1  0
 13 14  2  0
 14 15  1  0
 15 16  2  0
 16 11  1  0
 14 17  1  0
 18 17  1  1
 18 19  1  0
 19 20  1  0
 19 21  2  0
 20 22  1  0
 18 23  1  0
 23 24  1  0
 24 25  1  0
M  STY  2   1 SUP   2 SUP
M  SLB  2   1   1   2   2
M  SAL   1  2  26  27
M  SBL   1  1   2
M  SMT   1 OCH3
M  SBV   1   2    0.7144    0.4125
M  SAL   2  2  28  29
M  SBL   2  1   4
M  SMT   2 OCH3
M  SBV   2   4   -0.7144   -0.4125
M  END
$$$$
