
     RDKit          3D

 29 30  0  2  0  0  0  0  0  0999 V2000
   16.8038    9.2248  -10.7443 C   0  0  0  0  0  0  0  0  0  0  0  0
   15.5631    8.6663  -10.5530 C   0  0  0  0  0  0  0  0  0  0  0  0
   15.2296    8.1485   -9.3296 C   0  0  0  0  0  0  0  0  0  0  0  0
   16.1006    8.1543   -8.2327 C   0  0  0  0  0  0  0  0  0  0  0  0
   17.3246    8.7218   -8.4741 C   0  0  0  0  0  0  0  0  0  0  0  0
   17.6956    9.2580   -9.7081 C   0  0  0  0  0  0  0  0  0  0  0  0
   15.6660    7.5854   -6.9759 C   0  0  0  0  0  0  0  0  0  0  0  0
   16.4707    7.2140   -5.8183 C   0  0  0  0  0  0  0  0  0  0  0  0
   14.3985    7.3656   -6.8308 O   0  0  0  0  0  0  0  0  0  0  0  0
   16.9665    8.2296   -5.0240 O   0  0  0  0  0  0  0  0  0  0  0  0
   17.4105    7.9210   -3.7328 C   0  0  0  0  0  0  0  0  0  0  0  0
   16.9297    8.5683   -2.6355 C   0  0  0  0  0  0  0  0  0  0  0  0
   17.3847    8.2440   -1.3760 C   0  0  0  0  0  0  0  0  0  0  0  0
   18.3295    7.2715   -1.1461 C   0  0  0  0  0  0  0  0  0  0  0  0
   18.8150    6.6173   -2.2590 C   0  0  0  0  0  0  0  0  0  0  0  0
   18.3684    6.9301   -3.5396 C   0  0  0  0  0  0  0  0  0  0  0  0
   18.7828    6.9563    0.1999 C   0  0  0  0  0  0  0  0  0  0  0  0
   17.7926    7.2125    1.3025 C   0  0  1  0  0  0  0  0  0  0  0  0
   16.5713    6.3963    1.2287 C   0  0  0  0  0  0  0  0  0  0  0  0
   15.3691    6.8680    1.7914 N   0  0  0  0  0  0  0  0  0  0  0  0
   16.5776    5.2803    0.6709 O   0  0  0  0  0  0  0  0  0  0  0  0
   14.2209    5.9948    1.9714 C   0  0  0  0  0  0  0  0  0  0  0  0
   18.3719    7.2029    2.5628 O   0  0  0  0  0  0  0  0  0  0  0  0
   18.3061    8.3947    3.2286 C   0  0  0  0  0  0  0  0  0  0  0  0
   19.1745    9.3928    2.4900 C   0  0  0  0  0  0  0  0  0  0  0  0
   14.6106    8.6018  -11.5670 O   0  0  0  0  0  0  0  0  0  0  0  0
   13.9982    7.4165  -11.9856 C   0  0  0  0  0  0  0  0  0  0  0  0
   15.2958    8.1725    2.1702 O   0  0  0  0  0  0  0  0  0  0  0  0
   14.6914    8.9564    1.1970 C   0  0  0  0  0  0  0  0  0  0  0  0
 26 27  1  0
  2 26  1  0
 28 29  1  0
 20 28  1  0
  1  2  2  0
  2  3  1  0
  3  4  2  0
  4  5  1  0
  5  6  2  0
  6  1  1  0
  4  7  1  0
  7  8  1  0
  7  9  2  0
  8 10  1  0
 10 11  1  0
 11 12  2  0
 12 13  1  0
 13 14  2  0
 14 15  1  0
 15 16  2  0
 16 11  1  0
 14 17  1  0
 18 17  1  6
 18 19  1  0
 19 20  1  0
 19 21  2  0
 20 22  1  0
 18 23  1  0
 23 24  1  0
 24 25  1  0
M  STY  2   1 SUP   2 SUP
M  SLB  2   1   1   2   2
M  SAL   1  2  26  27
M  SBL   1  1   2
M  SMT   1 OCH3
M  SBV   1   2    0.7144    0.4125
M  SAL   2  2  28  29
M  SBL   2  1   4
M  SMT   2 OCH3
M  SBV   2   4   -0.7144   -0.4125
M  END
$$$$
