
     RDKit          3D

 29 30  0  2  0  0  0  0  0  0999 V2000
   14.9316    8.8944  -12.0939 C   0  0  0  0  0  0  0  0  0  0  0  0
   16.2022    9.4088  -11.9990 C   0  0  0  0  0  0  0  0  0  0  0  0
   16.8768    9.3444  -10.8086 C   0  0  0  0  0  0  0  0  0  0  0  0
   16.3349    8.7703   -9.6517 C   0  0  0  0  0  0  0  0  0  0  0  0
   15.0664    8.2720   -9.7977 C   0  0  0  0  0  0  0  0  0  0  0  0
   14.3521    8.3218  -10.9957 C   0  0  0  0  0  0  0  0  0  0  0  0
   17.1180    8.7448   -8.4360 C   0  0  0  0  0  0  0  0  0  0  0  0
   16.9612    7.8836   -7.2701 C   0  0  0  0  0  0  0  0  0  0  0  0
   18.0957    9.5881   -8.3422 O   0  0  0  0  0  0  0  0  0  0  0  0
   17.8911    7.9958   -6.2548 O   0  0  0  0  0  0  0  0  0  0  0  0
   17.4505    7.9431   -4.9271 C   0  0  0  0  0  0  0  0  0  0  0  0
   18.2613    8.2868   -3.8886 C   0  0  0  0  0  0  0  0  0  0  0  0
   17.8013    8.2255   -2.5912 C   0  0  0  0  0  0  0  0  0  0  0  0
   16.5271    7.8243   -2.2643 C   0  0  0  0  0  0  0  0  0  0  0  0
   15.7078    7.4767   -3.3179 C   0  0  0  0  0  0  0  0  0  0  0  0
   16.1535    7.5317   -4.6353 C   0  0  0  0  0  0  0  0  0  0  0  0
   16.0778    7.7751   -0.8815 C   0  0  0  0  0  0  0  0  0  0  0  0
   15.5411    9.0630   -0.3199 C   0  0  1  0  0  0  0  0  0  0  0  0
   14.2170    9.4478   -0.8316 C   0  0  0  0  0  0  0  0  0  0  0  0
   13.9984   10.7502   -1.3221 N   0  0  0  0  0  0  0  0  0  0  0  0
   13.2709    8.6346   -0.8405 O   0  0  0  0  0  0  0  0  0  0  0  0
   12.6565   11.2851   -1.4849 C   0  0  0  0  0  0  0  0  0  0  0  0
   15.6235    9.1258    1.0634 O   0  0  0  0  0  0  0  0  0  0  0  0
   16.8850    9.3257    1.5499 C   0  0  0  0  0  0  0  0  0  0  0  0
   17.4463    7.9806    1.9642 C   0  0  0  0  0  0  0  0  0  0  0  0
   16.8477   10.0045  -13.0798 O   0  0  0  0  0  0  0  0  0  0  0  0
   16.9594   11.3873  -13.2541 C   0  0  0  0  0  0  0  0  0  0  0  0
   15.0771   11.5129   -1.6466 O   0  0  0  0  0  0  0  0  0  0  0  0
   14.9985   12.7793   -1.0835 C   0  0  0  0  0  0  0  0  0  0  0  0
 26 27  1  0
  2 26  1  0
 28 29  1  0
 20 28  1  0
  1  2  2  0
  2  3  1  0
  3  4  2  0
  4  5  1  0
  5  6  2  0
  6  1  1  0
  4  7  1  0
  7  8  1  0
  7  9  2  0
  8 10  1  0
 10 11  1  0
 11 12  2  0
 12 13  1  0
 13 14  2  0
 14 15  1  0
 15 16  2  0
 16 11  1  0
 14 17  1  0
 18 17  1  1
 18 19  1  0
 19 20  1  0
 19 21  2  0
 20 22  1  0
 18 23  1  0
 23 24  1  0
 24 25  1  0
M  STY  2   1 SUP   2 SUP
M  SLB  2   1   1   2   2
M  SAL   1  2  26  27
M  SBL   1  1   2
M  SMT   1 OCH3
M  SBV   1   2    0.7144    0.4125
M  SAL   2  2  28  29
M  SBL   2  1   4
M  SMT   2 OCH3
M  SBV   2   4   -0.7144   -0.4125
M  END
$$$$
