
     RDKit          3D

 29 30  0  2  0  0  0  0  0  0999 V2000
   19.4754    2.9253    5.0799 C   0  0  0  0  0  0  0  0  0  0  0  0
   20.3782    2.4591    4.1550 C   0  0  0  0  0  0  0  0  0  0  0  0
   20.6044    3.1684    3.0052 C   0  0  0  0  0  0  0  0  0  0  0  0
   19.9533    4.3723    2.7079 C   0  0  0  0  0  0  0  0  0  0  0  0
   19.0633    4.7946    3.6609 C   0  0  0  0  0  0  0  0  0  0  0  0
   18.8099    4.0960    4.8422 C   0  0  0  0  0  0  0  0  0  0  0  0
   20.2527    5.0562    1.4691 C   0  0  0  0  0  0  0  0  0  0  0  0
   19.4019    5.2334    0.2986 C   0  0  0  0  0  0  0  0  0  0  0  0
   21.4255    5.5926    1.3559 O   0  0  0  0  0  0  0  0  0  0  0  0
   19.8791    6.0177   -0.7336 O   0  0  0  0  0  0  0  0  0  0  0  0
   18.9624    6.6992   -1.5429 C   0  0  0  0  0  0  0  0  0  0  0  0
   19.0431    8.0438   -1.7420 C   0  0  0  0  0  0  0  0  0  0  0  0
   18.1269    8.6890   -2.5439 C   0  0  0  0  0  0  0  0  0  0  0  0
   17.0966    8.0381   -3.1810 C   0  0  0  0  0  0  0  0  0  0  0  0
   17.0170    6.6762   -2.9777 C   0  0  0  0  0  0  0  0  0  0  0  0
   17.9323    6.0060   -2.1715 C   0  0  0  0  0  0  0  0  0  0  0  0
   16.1502    8.7548   -4.0220 C   0  0  0  0  0  0  0  0  0  0  0  0
   16.4721    8.7880   -5.4908 C   0  0  1  0  0  0  0  0  0  0  0  0
   15.6254    9.6942   -6.2814 C   0  0  0  0  0  0  0  0  0  0  0  0
   14.7070    9.1723   -7.2134 N   0  0  0  0  0  0  0  0  0  0  0  0
   15.7042   10.9315   -6.1423 O   0  0  0  0  0  0  0  0  0  0  0  0
   13.8380   10.0403   -7.9910 C   0  0  0  0  0  0  0  0  0  0  0  0
   17.8254    8.9565   -5.7443 O   0  0  0  0  0  0  0  0  0  0  0  0
   18.2622    8.3852   -6.9065 C   0  0  0  0  0  0  0  0  0  0  0  0
   18.8858    9.4725   -7.7579 C   0  0  0  0  0  0  0  0  0  0  0  0
   21.0878    1.2747    4.3375 O   0  0  0  0  0  0  0  0  0  0  0  0
   20.7756    0.3225    5.3126 C   0  0  0  0  0  0  0  0  0  0  0  0
   14.6431    7.8235   -7.3787 O   0  0  0  0  0  0  0  0  0  0  0  0
   15.6763    7.3548   -8.1786 C   0  0  0  0  0  0  0  0  0  0  0  0
 26 27  1  0
  2 26  1  0
 28 29  1  0
 20 28  1  0
  1  2  2  0
  2  3  1  0
  3  4  2  0
  4  5  1  0
  5  6  2  0
  6  1  1  0
  4  7  1  0
  7  8  1  0
  7  9  2  0
  8 10  1  0
 10 11  1  0
 11 12  2  0
 12 13  1  0
 13 14  2  0
 14 15  1  0
 15 16  2  0
 16 11  1  0
 14 17  1  0
 18 17  1  1
 18 19  1  0
 19 20  1  0
 19 21  2  0
 20 22  1  0
 18 23  1  0
 23 24  1  0
 24 25  1  0
M  STY  2   1 SUP   2 SUP
M  SLB  2   1   1   2   2
M  SAL   1  2  26  27
M  SBL   1  1   2
M  SMT   1 OCH3
M  SBV   1   2    0.7144    0.4125
M  SAL   2  2  28  29
M  SBL   2  1   4
M  SMT   2 OCH3
M  SBV   2   4   -0.7144   -0.4125
M  END
$$$$
