
     RDKit          3D

 29 30  0  2  0  0  0  0  0  0999 V2000
   21.1172    1.8166    7.2248 C   0  0  0  0  0  0  0  0  0  0  0  0
   20.6047    2.9389    7.8294 C   0  0  0  0  0  0  0  0  0  0  0  0
   19.8920    3.8462    7.0909 C   0  0  0  0  0  0  0  0  0  0  0  0
   19.6480    3.6944    5.7201 C   0  0  0  0  0  0  0  0  0  0  0  0
   20.1795    2.5599    5.1642 C   0  0  0  0  0  0  0  0  0  0  0  0
   20.9099    1.6163    5.8880 C   0  0  0  0  0  0  0  0  0  0  0  0
   18.8850    4.7023    5.0172 C   0  0  0  0  0  0  0  0  0  0  0  0
   19.0427    5.1716    3.6460 C   0  0  0  0  0  0  0  0  0  0  0  0
   17.9276    5.2824    5.6674 O   0  0  0  0  0  0  0  0  0  0  0  0
   18.0255    5.9324    3.1031 O   0  0  0  0  0  0  0  0  0  0  0  0
   18.0462    6.2059    1.7303 C   0  0  0  0  0  0  0  0  0  0  0  0
   18.8128    7.2036    1.2096 C   0  0  0  0  0  0  0  0  0  0  0  0
   18.8139    7.4508   -0.1459 C   0  0  0  0  0  0  0  0  0  0  0  0
   18.0620    6.7276   -1.0419 C   0  0  0  0  0  0  0  0  0  0  0  0
   17.2863    5.7177   -0.5121 C   0  0  0  0  0  0  0  0  0  0  0  0
   17.2712    5.4520    0.8540 C   0  0  0  0  0  0  0  0  0  0  0  0
   18.0921    7.0180   -2.4671 C   0  0  0  0  0  0  0  0  0  0  0  0
   16.8608    7.6740   -3.0291 C   0  0  1  0  0  0  0  0  0  0  0  0
   16.1495    8.5487   -2.0846 C   0  0  0  0  0  0  0  0  0  0  0  0
   15.2441    9.5172   -2.5607 N   0  0  0  0  0  0  0  0  0  0  0  0
   16.3334    8.4498   -0.8546 O   0  0  0  0  0  0  0  0  0  0  0  0
   14.5173   10.3889   -1.6523 C   0  0  0  0  0  0  0  0  0  0  0  0
   17.0822    8.2758   -4.2591 O   0  0  0  0  0  0  0  0  0  0  0  0
   17.4670    7.4182   -5.2513 C   0  0  0  0  0  0  0  0  0  0  0  0
   18.0698    6.1894   -4.6013 C   0  0  0  0  0  0  0  0  0  0  0  0
   20.7805    3.2008    9.1859 O   0  0  0  0  0  0  0  0  0  0  0  0
   20.1218    4.2252    9.8728 C   0  0  0  0  0  0  0  0  0  0  0  0
   15.0559    9.6277   -3.9034 O   0  0  0  0  0  0  0  0  0  0  0  0
   16.2238    9.9966   -4.5568 C   0  0  0  0  0  0  0  0  0  0  0  0
 26 27  1  0
  2 26  1  0
 28 29  1  0
 20 28  1  0
  1  2  2  0
  2  3  1  0
  3  4  2  0
  4  5  1  0
  5  6  2  0
  6  1  1  0
  4  7  1  0
  7  8  1  0
  7  9  2  0
  8 10  1  0
 10 11  1  0
 11 12  2  0
 12 13  1  0
 13 14  2  0
 14 15  1  0
 15 16  2  0
 16 11  1  0
 14 17  1  0
 18 17  1  1
 18 19  1  0
 19 20  1  0
 19 21  2  0
 20 22  1  0
 18 23  1  0
 23 24  1  0
 24 25  1  0
M  STY  2   1 SUP   2 SUP
M  SLB  2   1   1   2   2
M  SAL   1  2  26  27
M  SBL   1  1   2
M  SMT   1 OCH3
M  SBV   1   2    0.7144    0.4125
M  SAL   2  2  28  29
M  SBL   2  1   4
M  SMT   2 OCH3
M  SBV   2   4   -0.7144   -0.4125
M  END
$$$$
