
     RDKit          3D

 29 30  0  2  0  0  0  0  0  0999 V2000
   20.5967    4.7262    5.7566 C   0  0  0  0  0  0  0  0  0  0  0  0
   19.8031    3.6730    5.3708 C   0  0  0  0  0  0  0  0  0  0  0  0
   19.2712    3.6465    4.1088 C   0  0  0  0  0  0  0  0  0  0  0  0
   19.4937    4.6554    3.1630 C   0  0  0  0  0  0  0  0  0  0  0  0
   20.2910    5.6828    3.5958 C   0  0  0  0  0  0  0  0  0  0  0  0
   20.8481    5.7400    4.8741 C   0  0  0  0  0  0  0  0  0  0  0  0
   18.8923    4.5470    1.8520 C   0  0  0  0  0  0  0  0  0  0  0  0
   18.4817    5.6144    0.9479 C   0  0  0  0  0  0  0  0  0  0  0  0
   18.6782    3.3552    1.3942 O   0  0  0  0  0  0  0  0  0  0  0  0
   17.9708    5.2558   -0.2844 O   0  0  0  0  0  0  0  0  0  0  0  0
   18.1242    6.1373   -1.3610 C   0  0  0  0  0  0  0  0  0  0  0  0
   17.6984    7.4291   -1.2962 C   0  0  0  0  0  0  0  0  0  0  0  0
   17.8622    8.2750   -2.3715 C   0  0  0  0  0  0  0  0  0  0  0  0
   18.4506    7.8845   -3.5515 C   0  0  0  0  0  0  0  0  0  0  0  0
   18.8809    6.5757   -3.6148 C   0  0  0  0  0  0  0  0  0  0  0  0
   18.7248    5.7055   -2.5399 C   0  0  0  0  0  0  0  0  0  0  0  0
   18.6075    8.8087   -4.6641 C   0  0  0  0  0  0  0  0  0  0  0  0
   17.5481    8.7390   -5.7294 C   0  0  1  0  0  0  0  0  0  0  0  0
   16.1758    8.9405   -5.2403 C   0  0  0  0  0  0  0  0  0  0  0  0
   15.3061    7.8415   -5.0982 N   0  0  0  0  0  0  0  0  0  0  0  0
   15.7601   10.0791   -4.9446 O   0  0  0  0  0  0  0  0  0  0  0  0
   13.9056    8.0210   -4.7521 C   0  0  0  0  0  0  0  0  0  0  0  0
   17.8446    9.5171   -6.8388 O   0  0  0  0  0  0  0  0  0  0  0  0
   17.1309    9.2031   -7.9613 C   0  0  0  0  0  0  0  0  0  0  0  0
   17.7753    7.9911   -8.6029 C   0  0  0  0  0  0  0  0  0  0  0  0
   19.5092    2.6104    6.2217 O   0  0  0  0  0  0  0  0  0  0  0  0
   19.4591    1.2749    5.8106 C   0  0  0  0  0  0  0  0  0  0  0  0
   15.8021    6.5898   -5.2925 O   0  0  0  0  0  0  0  0  0  0  0  0
   14.9746    5.6190   -4.7449 C   0  0  0  0  0  0  0  0  0  0  0  0
 26 27  1  0
  2 26  1  0
 28 29  1  0
 20 28  1  0
  1  2  2  0
  2  3  1  0
  3  4  2  0
  4  5  1  0
  5  6  2  0
  6  1  1  0
  4  7  1  0
  7  8  1  0
  7  9  2  0
  8 10  1  0
 10 11  1  0
 11 12  2  0
 12 13  1  0
 13 14  2  0
 14 15  1  0
 15 16  2  0
 16 11  1  0
 14 17  1  0
 18 17  1  1
 18 19  1  0
 19 20  1  0
 19 21  2  0
 20 22  1  0
 18 23  1  0
 23 24  1  0
 24 25  1  0
M  STY  2   1 SUP   2 SUP
M  SLB  2   1   1   2   2
M  SAL   1  2  26  27
M  SBL   1  1   2
M  SMT   1 OCH3
M  SBV   1   2    0.7144    0.4125
M  SAL   2  2  28  29
M  SBL   2  1   4
M  SMT   2 OCH3
M  SBV   2   4   -0.7144   -0.4125
M  END
$$$$
