
     RDKit          3D

 29 30  0  2  0  0  0  0  0  0999 V2000
   19.3921    6.9452    3.5589 C   0  0  0  0  0  0  0  0  0  0  0  0
   19.3625    5.8337    2.7517 C   0  0  0  0  0  0  0  0  0  0  0  0
   18.9317    5.9430    1.4561 C   0  0  0  0  0  0  0  0  0  0  0  0
   18.5082    7.1520    0.8897 C   0  0  0  0  0  0  0  0  0  0  0  0
   18.5564    8.2302    1.7345 C   0  0  0  0  0  0  0  0  0  0  0  0
   18.9899    8.1527    3.0589 C   0  0  0  0  0  0  0  0  0  0  0  0
   18.0684    7.1770   -0.4880 C   0  0  0  0  0  0  0  0  0  0  0  0
   16.9816    7.9454   -1.0827 C   0  0  0  0  0  0  0  0  0  0  0  0
   18.7065    6.4267   -1.3282 O   0  0  0  0  0  0  0  0  0  0  0  0
   17.3042    8.8793   -2.0481 O   0  0  0  0  0  0  0  0  0  0  0  0
   17.1733    8.5285   -3.3970 C   0  0  0  0  0  0  0  0  0  0  0  0
   17.9405    9.1023   -4.3647 C   0  0  0  0  0  0  0  0  0  0  0  0
   17.7903    8.7378   -5.6850 C   0  0  0  0  0  0  0  0  0  0  0  0
   16.8809    7.7957   -6.1054 C   0  0  0  0  0  0  0  0  0  0  0  0
   16.1050    7.2160   -5.1234 C   0  0  0  0  0  0  0  0  0  0  0  0
   16.2412    7.5704   -3.7844 C   0  0  0  0  0  0  0  0  0  0  0  0
   16.7539    7.4362   -7.5093 C   0  0  0  0  0  0  0  0  0  0  0  0
   15.9932    8.4079   -8.3691 C   0  0  1  0  0  0  0  0  0  0  0  0
   15.7296    7.9365   -9.7372 C   0  0  0  0  0  0  0  0  0  0  0  0
   16.3605    8.5565  -10.8337 N   0  0  0  0  0  0  0  0  0  0  0  0
   14.9490    6.9868   -9.9500 O   0  0  0  0  0  0  0  0  0  0  0  0
   16.1531    8.0873  -12.1939 C   0  0  0  0  0  0  0  0  0  0  0  0
   14.8613    8.9111   -7.7450 O   0  0  0  0  0  0  0  0  0  0  0  0
   14.9760   10.2030   -7.3137 C   0  0  0  0  0  0  0  0  0  0  0  0
   14.4715   11.1119   -8.4162 C   0  0  0  0  0  0  0  0  0  0  0  0
   19.7587    4.5761    3.2003 O   0  0  0  0  0  0  0  0  0  0  0  0
   19.8787    3.4562    2.3718 C   0  0  0  0  0  0  0  0  0  0  0  0
   17.1793    9.6171  -10.5989 O   0  0  0  0  0  0  0  0  0  0  0  0
   16.4705   10.8091  -10.5372 C   0  0  0  0  0  0  0  0  0  0  0  0
 26 27  1  0
  2 26  1  0
 28 29  1  0
 20 28  1  0
  1  2  2  0
  2  3  1  0
  3  4  2  0
  4  5  1  0
  5  6  2  0
  6  1  1  0
  4  7  1  0
  7  8  1  0
  7  9  2  0
  8 10  1  0
 10 11  1  0
 11 12  2  0
 12 13  1  0
 13 14  2  0
 14 15  1  0
 15 16  2  0
 16 11  1  0
 14 17  1  0
 18 17  1  1
 18 19  1  0
 19 20  1  0
 19 21  2  0
 20 22  1  0
 18 23  1  0
 23 24  1  0
 24 25  1  0
M  STY  2   1 SUP   2 SUP
M  SLB  2   1   1   2   2
M  SAL   1  2  26  27
M  SBL   1  1   2
M  SMT   1 OCH3
M  SBV   1   2    0.7144    0.4125
M  SAL   2  2  28  29
M  SBL   2  1   4
M  SMT   2 OCH3
M  SBV   2   4   -0.7144   -0.4125
M  END
$$$$
