
     RDKit          3D

 29 30  0  2  0  0  0  0  0  0999 V2000
   15.1198    8.0771  -10.9950 C   0  0  0  0  0  0  0  0  0  0  0  0
   16.0972    9.0416  -10.9474 C   0  0  0  0  0  0  0  0  0  0  0  0
   16.7371    9.3063   -9.7656 C   0  0  0  0  0  0  0  0  0  0  0  0
   16.4472    8.6350   -8.5710 C   0  0  0  0  0  0  0  0  0  0  0  0
   15.4660    7.6832   -8.6706 C   0  0  0  0  0  0  0  0  0  0  0  0
   14.7950    7.3894   -9.8586 C   0  0  0  0  0  0  0  0  0  0  0  0
   17.1724    8.9784   -7.3676 C   0  0  0  0  0  0  0  0  0  0  0  0
   17.0968    8.3573   -6.0509 C   0  0  0  0  0  0  0  0  0  0  0  0
   18.0074    9.9651   -7.4392 O   0  0  0  0  0  0  0  0  0  0  0  0
   17.7546    8.9769   -5.0061 O   0  0  0  0  0  0  0  0  0  0  0  0
   17.9356    8.2726   -3.8099 C   0  0  0  0  0  0  0  0  0  0  0  0
   17.2663    7.1153   -3.5511 C   0  0  0  0  0  0  0  0  0  0  0  0
   17.4639    6.4426   -2.3649 C   0  0  0  0  0  0  0  0  0  0  0  0
   18.3265    6.8808   -1.3876 C   0  0  0  0  0  0  0  0  0  0  0  0
   19.0032    8.0531   -1.6521 C   0  0  0  0  0  0  0  0  0  0  0  0
   18.8177    8.7475   -2.8439 C   0  0  0  0  0  0  0  0  0  0  0  0
   18.5095    6.1404   -0.1486 C   0  0  0  0  0  0  0  0  0  0  0  0
   17.7248    6.6371    1.0344 C   0  0  1  0  0  0  0  0  0  0  0  0
   16.2711    6.7011    0.8200 C   0  0  0  0  0  0  0  0  0  0  0  0
   15.5732    7.9026    1.0522 N   0  0  0  0  0  0  0  0  0  0  0  0
   15.6346    5.7007    0.4318 O   0  0  0  0  0  0  0  0  0  0  0  0
   14.1203    7.9444    1.0765 C   0  0  0  0  0  0  0  0  0  0  0  0
   18.0676    5.9989    2.2173 O   0  0  0  0  0  0  0  0  0  0  0  0
   18.5213    6.8310    3.2022 C   0  0  0  0  0  0  0  0  0  0  0  0
   20.0061    7.0441    2.9887 C   0  0  0  0  0  0  0  0  0  0  0  0
   16.4740    9.7767  -12.0687 O   0  0  0  0  0  0  0  0  0  0  0  0
   15.7492    9.7997  -13.2641 C   0  0  0  0  0  0  0  0  0  0  0  0
   16.2885    9.0415    1.2566 O   0  0  0  0  0  0  0  0  0  0  0  0
   15.5242   10.1766    1.0231 C   0  0  0  0  0  0  0  0  0  0  0  0
 26 27  1  0
  2 26  1  0
 28 29  1  0
 20 28  1  0
  1  2  2  0
  2  3  1  0
  3  4  2  0
  4  5  1  0
  5  6  2  0
  6  1  1  0
  4  7  1  0
  7  8  1  0
  7  9  2  0
  8 10  1  0
 10 11  1  0
 11 12  2  0
 12 13  1  0
 13 14  2  0
 14 15  1  0
 15 16  2  0
 16 11  1  0
 14 17  1  0
 18 17  1  6
 18 19  1  0
 19 20  1  0
 19 21  2  0
 20 22  1  0
 18 23  1  0
 23 24  1  0
 24 25  1  0
M  STY  2   1 SUP   2 SUP
M  SLB  2   1   1   2   2
M  SAL   1  2  26  27
M  SBL   1  1   2
M  SMT   1 OCH3
M  SBV   1   2    0.7144    0.4125
M  SAL   2  2  28  29
M  SBL   2  1   4
M  SMT   2 OCH3
M  SBV   2   4   -0.7144   -0.4125
M  END
$$$$
