
     RDKit          3D

 29 30  0  2  0  0  0  0  0  0999 V2000
   14.7499    7.8871  -11.3025 C   0  0  0  0  0  0  0  0  0  0  0  0
   15.7552    8.7941  -11.5359 C   0  0  0  0  0  0  0  0  0  0  0  0
   16.4861    9.2869  -10.4875 C   0  0  0  0  0  0  0  0  0  0  0  0
   16.2642    8.9117   -9.1564 C   0  0  0  0  0  0  0  0  0  0  0  0
   15.2517    8.0057   -8.9761 C   0  0  0  0  0  0  0  0  0  0  0  0
   14.4886    7.4845  -10.0220 C   0  0  0  0  0  0  0  0  0  0  0  0
   17.0839    9.4822   -8.1102 C   0  0  0  0  0  0  0  0  0  0  0  0
   17.0885    9.1712   -6.6859 C   0  0  0  0  0  0  0  0  0  0  0  0
   17.9366   10.3933   -8.4548 O   0  0  0  0  0  0  0  0  0  0  0  0
   18.0790    9.7348   -5.9052 O   0  0  0  0  0  0  0  0  0  0  0  0
   18.3453    9.1797   -4.6480 C   0  0  0  0  0  0  0  0  0  0  0  0
   18.8188    7.9104   -4.5104 C   0  0  0  0  0  0  0  0  0  0  0  0
   19.0722    7.3894   -3.2603 C   0  0  0  0  0  0  0  0  0  0  0  0
   18.8703    8.0951   -2.0974 C   0  0  0  0  0  0  0  0  0  0  0  0
   18.3906    9.3804   -2.2393 C   0  0  0  0  0  0  0  0  0  0  0  0
   18.1283    9.9251   -3.4929 C   0  0  0  0  0  0  0  0  0  0  0  0
   19.1523    7.5102   -0.7955 C   0  0  0  0  0  0  0  0  0  0  0  0
   17.9524    7.1785    0.0485 C   0  0  1  0  0  0  0  0  0  0  0  0
   17.1838    6.0129   -0.4138 C   0  0  0  0  0  0  0  0  0  0  0  0
   15.9341    5.7143    0.1638 N   0  0  0  0  0  0  0  0  0  0  0  0
   17.6208    5.2732   -1.3185 O   0  0  0  0  0  0  0  0  0  0  0  0
   15.1759    4.5389   -0.2321 C   0  0  0  0  0  0  0  0  0  0  0  0
   18.2414    7.1304    1.4043 O   0  0  0  0  0  0  0  0  0  0  0  0
   19.5383    6.8153    1.6990 C   0  0  0  0  0  0  0  0  0  0  0  0
   20.0428    5.8624    0.6344 C   0  0  0  0  0  0  0  0  0  0  0  0
   16.0709    9.2438  -12.8157 O   0  0  0  0  0  0  0  0  0  0  0  0
   17.3514    9.6485  -13.2048 C   0  0  0  0  0  0  0  0  0  0  0  0
   15.4383    6.5541    1.1123 O   0  0  0  0  0  0  0  0  0  0  0  0
   14.9132    7.7099    0.5507 C   0  0  0  0  0  0  0  0  0  0  0  0
 26 27  1  0
  2 26  1  0
 28 29  1  0
 20 28  1  0
  1  2  2  0
  2  3  1  0
  3  4  2  0
  4  5  1  0
  5  6  2  0
  6  1  1  0
  4  7  1  0
  7  8  1  0
  7  9  2  0
  8 10  1  0
 10 11  1  0
 11 12  2  0
 12 13  1  0
 13 14  2  0
 14 15  1  0
 15 16  2  0
 16 11  1  0
 14 17  1  0
 18 17  1  6
 18 19  1  0
 19 20  1  0
 19 21  2  0
 20 22  1  0
 18 23  1  0
 23 24  1  0
 24 25  1  0
M  STY  2   1 SUP   2 SUP
M  SLB  2   1   1   2   2
M  SAL   1  2  26  27
M  SBL   1  1   2
M  SMT   1 OCH3
M  SBV   1   2    0.7144    0.4125
M  SAL   2  2  28  29
M  SBL   2  1   4
M  SMT   2 OCH3
M  SBV   2   4   -0.7144   -0.4125
M  END
$$$$
