
     RDKit          3D

 29 30  0  2  0  0  0  0  0  0999 V2000
   21.0914    7.8621    3.2495 C   0  0  0  0  0  0  0  0  0  0  0  0
   21.7804    7.5018    2.1166 C   0  0  0  0  0  0  0  0  0  0  0  0
   21.1653    6.7420    1.1572 C   0  0  0  0  0  0  0  0  0  0  0  0
   19.8411    6.2985    1.2645 C   0  0  0  0  0  0  0  0  0  0  0  0
   19.1974    6.6839    2.4116 C   0  0  0  0  0  0  0  0  0  0  0  0
   19.7950    7.4573    3.4079 C   0  0  0  0  0  0  0  0  0  0  0  0
   19.2700    5.4993    0.2029 C   0  0  0  0  0  0  0  0  0  0  0  0
   17.8664    5.3228   -0.1493 C   0  0  0  0  0  0  0  0  0  0  0  0
   20.0908    4.8414   -0.5518 O   0  0  0  0  0  0  0  0  0  0  0  0
   17.5260    5.3670   -1.4874 O   0  0  0  0  0  0  0  0  0  0  0  0
   17.0307    6.5637   -2.0187 C   0  0  0  0  0  0  0  0  0  0  0  0
   16.9707    7.7056   -1.2795 C   0  0  0  0  0  0  0  0  0  0  0  0
   16.4782    8.8697   -1.8282 C   0  0  0  0  0  0  0  0  0  0  0  0
   16.0259    8.9566   -3.1240 C   0  0  0  0  0  0  0  0  0  0  0  0
   16.0876    7.7986   -3.8706 C   0  0  0  0  0  0  0  0  0  0  0  0
   16.5815    6.6128   -3.3350 C   0  0  0  0  0  0  0  0  0  0  0  0
   15.5150   10.2056   -3.6678 C   0  0  0  0  0  0  0  0  0  0  0  0
   14.1609   10.6321   -3.1712 C   0  0  1  0  0  0  0  0  0  0  0  0
   13.4752   11.6094   -4.0301 C   0  0  0  0  0  0  0  0  0  0  0  0
   13.9371   12.9385   -4.0991 N   0  0  0  0  0  0  0  0  0  0  0  0
   12.4801   11.2821   -4.7078 O   0  0  0  0  0  0  0  0  0  0  0  0
   13.3154   13.9138   -4.9797 C   0  0  0  0  0  0  0  0  0  0  0  0
   13.3516    9.5615   -2.8204 O   0  0  0  0  0  0  0  0  0  0  0  0
   12.9399    9.5624   -1.5171 C   0  0  0  0  0  0  0  0  0  0  0  0
   11.6244   10.3104   -1.4415 C   0  0  0  0  0  0  0  0  0  0  0  0
   23.1019    7.8818    1.8955 O   0  0  0  0  0  0  0  0  0  0  0  0
   23.8393    7.5135    0.7661 C   0  0  0  0  0  0  0  0  0  0  0  0
   14.9897   13.3030   -3.3181 O   0  0  0  0  0  0  0  0  0  0  0  0
   14.5896   14.1088   -2.2609 C   0  0  0  0  0  0  0  0  0  0  0  0
 26 27  1  0
  2 26  1  0
 28 29  1  0
 20 28  1  0
  1  2  2  0
  2  3  1  0
  3  4  2  0
  4  5  1  0
  5  6  2  0
  6  1  1  0
  4  7  1  0
  7  8  1  0
  7  9  2  0
  8 10  1  0
 10 11  1  0
 11 12  2  0
 12 13  1  0
 13 14  2  0
 14 15  1  0
 15 16  2  0
 16 11  1  0
 14 17  1  0
 18 17  1  6
 18 19  1  0
 19 20  1  0
 19 21  2  0
 20 22  1  0
 18 23  1  0
 23 24  1  0
 24 25  1  0
M  STY  2   1 SUP   2 SUP
M  SLB  2   1   1   2   2
M  SAL   1  2  26  27
M  SBL   1  1   2
M  SMT   1 OCH3
M  SBV   1   2    0.7144    0.4125
M  SAL   2  2  28  29
M  SBL   2  1   4
M  SMT   2 OCH3
M  SBV   2   4   -0.7144   -0.4125
M  END
$$$$
