
     RDKit          3D

 29 30  0  2  0  0  0  0  0  0999 V2000
   15.2211    5.7048    0.2428 C   0  0  0  0  0  0  0  0  0  0  0  0
   16.5716    5.5842    0.0206 C   0  0  0  0  0  0  0  0  0  0  0  0
   17.1959    6.4276   -0.8599 C   0  0  0  0  0  0  0  0  0  0  0  0
   16.5222    7.4322   -1.5661 C   0  0  0  0  0  0  0  0  0  0  0  0
   15.1781    7.5118   -1.3099 C   0  0  0  0  0  0  0  0  0  0  0  0
   14.5120    6.6685   -0.4194 C   0  0  0  0  0  0  0  0  0  0  0  0
   17.2604    8.2789   -2.4771 C   0  0  0  0  0  0  0  0  0  0  0  0
   17.3613    8.1842   -3.9284 C   0  0  0  0  0  0  0  0  0  0  0  0
   17.9307    9.2604   -1.9639 O   0  0  0  0  0  0  0  0  0  0  0  0
   18.0869    9.1559   -4.5899 O   0  0  0  0  0  0  0  0  0  0  0  0
   17.9015    9.3156   -5.9682 C   0  0  0  0  0  0  0  0  0  0  0  0
   16.9702   10.1719   -6.4718 C   0  0  0  0  0  0  0  0  0  0  0  0
   16.8091   10.3092   -7.8333 C   0  0  0  0  0  0  0  0  0  0  0  0
   17.5566    9.6108   -8.7524 C   0  0  0  0  0  0  0  0  0  0  0  0
   18.4992    8.7441   -8.2399 C   0  0  0  0  0  0  0  0  0  0  0  0
   18.6774    8.5909   -6.8681 C   0  0  0  0  0  0  0  0  0  0  0  0
   17.3580    9.7854  -10.1830 C   0  0  0  0  0  0  0  0  0  0  0  0
   16.1654    9.0821  -10.7704 C   0  0  1  0  0  0  0  0  0  0  0  0
   14.8777    9.4534  -10.1647 C   0  0  0  0  0  0  0  0  0  0  0  0
   13.8153    9.8978  -10.9761 N   0  0  0  0  0  0  0  0  0  0  0  0
   14.7039    9.3822   -8.9312 O   0  0  0  0  0  0  0  0  0  0  0  0
   12.4312    9.7772  -10.5484 C   0  0  0  0  0  0  0  0  0  0  0  0
   16.1412    9.1245  -12.1567 O   0  0  0  0  0  0  0  0  0  0  0  0
   17.3112    9.5312  -12.7342 C   0  0  0  0  0  0  0  0  0  0  0  0
   17.2162    9.2659  -14.2230 C   0  0  0  0  0  0  0  0  0  0  0  0
   17.3497    4.6242    0.6629 O   0  0  0  0  0  0  0  0  0  0  0  0
   18.7289    4.4887    0.4775 C   0  0  0  0  0  0  0  0  0  0  0  0
   14.1066   10.4501  -12.1847 O   0  0  0  0  0  0  0  0  0  0  0  0
   14.4894   11.7789  -12.0629 C   0  0  0  0  0  0  0  0  0  0  0  0
 26 27  1  0
  2 26  1  0
 28 29  1  0
 20 28  1  0
  1  2  2  0
  2  3  1  0
  3  4  2  0
  4  5  1  0
  5  6  2  0
  6  1  1  0
  4  7  1  0
  7  8  1  0
  7  9  2  0
  8 10  1  0
 10 11  1  0
 11 12  2  0
 12 13  1  0
 13 14  2  0
 14 15  1  0
 15 16  2  0
 16 11  1  0
 14 17  1  0
 18 17  1  1
 18 19  1  0
 19 20  1  0
 19 21  2  0
 20 22  1  0
 18 23  1  0
 23 24  1  0
 24 25  1  0
M  STY  2   1 SUP   2 SUP
M  SLB  2   1   1   2   2
M  SAL   1  2  26  27
M  SBL   1  1   2
M  SMT   1 OCH3
M  SBV   1   2    0.7144    0.4125
M  SAL   2  2  28  29
M  SBL   2  1   4
M  SMT   2 OCH3
M  SBV   2   4   -0.7144   -0.4125
M  END
$$$$
