
     RDKit          3D

 29 30  0  2  0  0  0  0  0  0999 V2000
   22.1168    3.9270    5.9417 C   0  0  0  0  0  0  0  0  0  0  0  0
   20.8091    3.5174    5.8421 C   0  0  0  0  0  0  0  0  0  0  0  0
   20.1601    3.5946    4.6383 C   0  0  0  0  0  0  0  0  0  0  0  0
   20.7656    4.0789    3.4719 C   0  0  0  0  0  0  0  0  0  0  0  0
   22.0692    4.4745    3.6232 C   0  0  0  0  0  0  0  0  0  0  0  0
   22.7588    4.4089    4.8348 C   0  0  0  0  0  0  0  0  0  0  0  0
   20.0056    4.1256    2.2422 C   0  0  0  0  0  0  0  0  0  0  0  0
   20.2678    4.9064    1.0393 C   0  0  0  0  0  0  0  0  0  0  0  0
   18.9457    3.3857    2.1713 O   0  0  0  0  0  0  0  0  0  0  0  0
   19.4110    4.7479   -0.0327 O   0  0  0  0  0  0  0  0  0  0  0  0
   18.9747    5.8856   -0.7219 C   0  0  0  0  0  0  0  0  0  0  0  0
   17.7961    6.4977   -0.4214 C   0  0  0  0  0  0  0  0  0  0  0  0
   17.3912    7.6165   -1.1163 C   0  0  0  0  0  0  0  0  0  0  0  0
   18.1284    8.1769   -2.1330 C   0  0  0  0  0  0  0  0  0  0  0  0
   19.3218    7.5551   -2.4355 C   0  0  0  0  0  0  0  0  0  0  0  0
   19.7486    6.4242   -1.7455 C   0  0  0  0  0  0  0  0  0  0  0  0
   17.6676    9.3608   -2.8418 C   0  0  0  0  0  0  0  0  0  0  0  0
   16.8788    9.1083   -4.0972 C   0  0  1  0  0  0  0  0  0  0  0  0
   15.6341    8.3513   -3.8947 C   0  0  0  0  0  0  0  0  0  0  0  0
   15.5705    6.9873   -4.2410 N   0  0  0  0  0  0  0  0  0  0  0  0
   14.6201    8.8987   -3.4165 O   0  0  0  0  0  0  0  0  0  0  0  0
   14.3261    6.2403   -4.1598 C   0  0  0  0  0  0  0  0  0  0  0  0
   16.6959   10.2521   -4.8604 O   0  0  0  0  0  0  0  0  0  0  0  0
   17.3005   10.2214   -6.0857 C   0  0  0  0  0  0  0  0  0  0  0  0
   16.3973    9.4610   -7.0353 C   0  0  0  0  0  0  0  0  0  0  0  0
   20.0997    3.0173    6.9314 O   0  0  0  0  0  0  0  0  0  0  0  0
   18.7563    2.6337    6.8757 C   0  0  0  0  0  0  0  0  0  0  0  0
   16.7075    6.3684   -4.6592 O   0  0  0  0  0  0  0  0  0  0  0  0
   16.9254    5.1793   -3.9770 C   0  0  0  0  0  0  0  0  0  0  0  0
 26 27  1  0
  2 26  1  0
 28 29  1  0
 20 28  1  0
  1  2  2  0
  2  3  1  0
  3  4  2  0
  4  5  1  0
  5  6  2  0
  6  1  1  0
  4  7  1  0
  7  8  1  0
  7  9  2  0
  8 10  1  0
 10 11  1  0
 11 12  2  0
 12 13  1  0
 13 14  2  0
 14 15  1  0
 15 16  2  0
 16 11  1  0
 14 17  1  0
 18 17  1  1
 18 19  1  0
 19 20  1  0
 19 21  2  0
 20 22  1  0
 18 23  1  0
 23 24  1  0
 24 25  1  0
M  STY  2   1 SUP   2 SUP
M  SLB  2   1   1   2   2
M  SAL   1  2  26  27
M  SBL   1  1   2
M  SMT   1 OCH3
M  SBV   1   2    0.7144    0.4125
M  SAL   2  2  28  29
M  SBL   2  1   4
M  SMT   2 OCH3
M  SBV   2   4   -0.7144   -0.4125
M  END
$$$$
