
     RDKit          3D

 29 30  0  2  0  0  0  0  0  0999 V2000
   17.9007    8.8999   -6.5596 C   0  0  0  0  0  0  0  0  0  0  0  0
   16.7424    8.2076   -6.3008 C   0  0  0  0  0  0  0  0  0  0  0  0
   16.6121    7.5104   -5.1289 C   0  0  0  0  0  0  0  0  0  0  0  0
   17.6152    7.4595   -4.1528 C   0  0  0  0  0  0  0  0  0  0  0  0
   18.7498    8.1655   -4.4578 C   0  0  0  0  0  0  0  0  0  0  0  0
   18.9144    8.8857   -5.6419 C   0  0  0  0  0  0  0  0  0  0  0  0
   17.3933    6.6982   -2.9433 C   0  0  0  0  0  0  0  0  0  0  0  0
   18.3010    6.4850   -1.8225 C   0  0  0  0  0  0  0  0  0  0  0  0
   16.2441    6.1172   -2.8103 O   0  0  0  0  0  0  0  0  0  0  0  0
   17.7479    6.2923   -0.5714 O   0  0  0  0  0  0  0  0  0  0  0  0
   18.5276    5.6962    0.4267 C   0  0  0  0  0  0  0  0  0  0  0  0
   19.1256    4.4868    0.2427 C   0  0  0  0  0  0  0  0  0  0  0  0
   19.8878    3.9232    1.2427 C   0  0  0  0  0  0  0  0  0  0  0  0
   20.0919    4.5261    2.4618 C   0  0  0  0  0  0  0  0  0  0  0  0
   19.4851    5.7510    2.6458 C   0  0  0  0  0  0  0  0  0  0  0  0
   18.7114    6.3371    1.6484 C   0  0  0  0  0  0  0  0  0  0  0  0
   20.9059    3.8996    3.4921 C   0  0  0  0  0  0  0  0  0  0  0  0
   20.1559    3.3304    4.6649 C   0  0  1  0  0  0  0  0  0  0  0  0
   19.1532    2.3133    4.3135 C   0  0  0  0  0  0  0  0  0  0  0  0
   17.8759    2.3434    4.9069 N   0  0  0  0  0  0  0  0  0  0  0  0
   19.4134    1.4127    3.4902 O   0  0  0  0  0  0  0  0  0  0  0  0
   16.9833    1.1976    4.8464 C   0  0  0  0  0  0  0  0  0  0  0  0
   20.9905    2.9301    5.6980 O   0  0  0  0  0  0  0  0  0  0  0  0
   20.3710    2.7893    6.9081 C   0  0  0  0  0  0  0  0  0  0  0  0
   20.1898    4.1700    7.5055 C   0  0  0  0  0  0  0  0  0  0  0  0
   15.6739    8.1822   -7.1937 O   0  0  0  0  0  0  0  0  0  0  0  0
   14.5324    7.3938   -7.0196 C   0  0  0  0  0  0  0  0  0  0  0  0
   17.4826    3.4771    5.5477 O   0  0  0  0  0  0  0  0  0  0  0  0
   16.6814    4.2719    4.7393 C   0  0  0  0  0  0  0  0  0  0  0  0
 26 27  1  0
  2 26  1  0
 28 29  1  0
 20 28  1  0
  1  2  2  0
  2  3  1  0
  3  4  2  0
  4  5  1  0
  5  6  2  0
  6  1  1  0
  4  7  1  0
  7  8  1  0
  7  9  2  0
  8 10  1  0
 10 11  1  0
 11 12  2  0
 12 13  1  0
 13 14  2  0
 14 15  1  0
 15 16  2  0
 16 11  1  0
 14 17  1  0
 18 17  1  6
 18 19  1  0
 19 20  1  0
 19 21  2  0
 20 22  1  0
 18 23  1  0
 23 24  1  0
 24 25  1  0
M  STY  2   1 SUP   2 SUP
M  SLB  2   1   1   2   2
M  SAL   1  2  26  27
M  SBL   1  1   2
M  SMT   1 OCH3
M  SBV   1   2    0.7144    0.4125
M  SAL   2  2  28  29
M  SBL   2  1   4
M  SMT   2 OCH3
M  SBV   2   4   -0.7144   -0.4125
M  END
$$$$
