
     RDKit          3D

 29 30  0  2  0  0  0  0  0  0999 V2000
   15.4358   10.8077   -9.9755 C   0  0  0  0  0  0  0  0  0  0  0  0
   16.3402    9.8158  -10.2687 C   0  0  0  0  0  0  0  0  0  0  0  0
   16.6030    8.8382   -9.3461 C   0  0  0  0  0  0  0  0  0  0  0  0
   15.9888    8.7876   -8.0883 C   0  0  0  0  0  0  0  0  0  0  0  0
   15.0957    9.7982   -7.8441 C   0  0  0  0  0  0  0  0  0  0  0  0
   14.8055   10.8087   -8.7620 C   0  0  0  0  0  0  0  0  0  0  0  0
   16.3257    7.7184   -7.1743 C   0  0  0  0  0  0  0  0  0  0  0  0
   17.0265    7.7986   -5.8984 C   0  0  0  0  0  0  0  0  0  0  0  0
   15.9700    6.5190   -7.5073 O   0  0  0  0  0  0  0  0  0  0  0  0
   17.3429    6.6150   -5.2602 O   0  0  0  0  0  0  0  0  0  0  0  0
   17.6029    6.6384   -3.8849 C   0  0  0  0  0  0  0  0  0  0  0  0
   18.5211    7.4854   -3.3431 C   0  0  0  0  0  0  0  0  0  0  0  0
   18.7568    7.4871   -1.9856 C   0  0  0  0  0  0  0  0  0  0  0  0
   18.0996    6.6568   -1.1081 C   0  0  0  0  0  0  0  0  0  0  0  0
   17.1701    5.7997   -1.6592 C   0  0  0  0  0  0  0  0  0  0  0  0
   16.9174    5.7826   -3.0278 C   0  0  0  0  0  0  0  0  0  0  0  0
   18.3751    6.6902    0.3200 C   0  0  0  0  0  0  0  0  0  0  0  0
   17.5668    7.6733    1.1213 C   0  0  1  0  0  0  0  0  0  0  0  0
   16.1103    7.5082    1.0010 C   0  0  0  0  0  0  0  0  0  0  0  0
   15.3035    8.5970    0.6159 N   0  0  0  0  0  0  0  0  0  0  0  0
   15.5669    6.4100    1.2359 O   0  0  0  0  0  0  0  0  0  0  0  0
   13.8532    8.4994    0.6001 C   0  0  0  0  0  0  0  0  0  0  0  0
   17.9906    7.7761    2.4380 O   0  0  0  0  0  0  0  0  0  0  0  0
   18.6288    8.9462    2.7408 C   0  0  0  0  0  0  0  0  0  0  0  0
   17.5990    9.9142    3.2869 C   0  0  0  0  0  0  0  0  0  0  0  0
   17.0150    9.7585  -11.4857 O   0  0  0  0  0  0  0  0  0  0  0  0
   16.3976    9.9373  -12.7274 C   0  0  0  0  0  0  0  0  0  0  0  0
   15.9096    9.7597    0.2533 O   0  0  0  0  0  0  0  0  0  0  0  0
   15.2817   10.3478   -0.8361 C   0  0  0  0  0  0  0  0  0  0  0  0
 26 27  1  0
  2 26  1  0
 28 29  1  0
 20 28  1  0
  1  2  2  0
  2  3  1  0
  3  4  2  0
  4  5  1  0
  5  6  2  0
  6  1  1  0
  4  7  1  0
  7  8  1  0
  7  9  2  0
  8 10  1  0
 10 11  1  0
 11 12  2  0
 12 13  1  0
 13 14  2  0
 14 15  1  0
 15 16  2  0
 16 11  1  0
 14 17  1  0
 18 17  1  1
 18 19  1  0
 19 20  1  0
 19 21  2  0
 20 22  1  0
 18 23  1  0
 23 24  1  0
 24 25  1  0
M  STY  2   1 SUP   2 SUP
M  SLB  2   1   1   2   2
M  SAL   1  2  26  27
M  SBL   1  1   2
M  SMT   1 OCH3
M  SBV   1   2    0.7144    0.4125
M  SAL   2  2  28  29
M  SBL   2  1   4
M  SMT   2 OCH3
M  SBV   2   4   -0.7144   -0.4125
M  END
$$$$
