
     RDKit          3D

 29 30  0  2  0  0  0  0  0  0999 V2000
   20.8414    4.8041    3.5194 C   0  0  0  0  0  0  0  0  0  0  0  0
   21.5430    4.8124    2.3381 C   0  0  0  0  0  0  0  0  0  0  0  0
   20.9190    5.1846    1.1769 C   0  0  0  0  0  0  0  0  0  0  0  0
   19.5730    5.5674    1.1200 C   0  0  0  0  0  0  0  0  0  0  0  0
   18.9173    5.5426    2.3234 C   0  0  0  0  0  0  0  0  0  0  0  0
   19.5235    5.1686    3.5236 C   0  0  0  0  0  0  0  0  0  0  0  0
   18.9938    5.9459   -0.1501 C   0  0  0  0  0  0  0  0  0  0  0  0
   17.7343    6.6335   -0.4074 C   0  0  0  0  0  0  0  0  0  0  0  0
   19.6605    5.6470   -1.2188 O   0  0  0  0  0  0  0  0  0  0  0  0
   17.3570    6.8189   -1.7233 O   0  0  0  0  0  0  0  0  0  0  0  0
   16.7720    8.0359   -2.0927 C   0  0  0  0  0  0  0  0  0  0  0  0
   16.7510    8.4576   -3.3872 C   0  0  0  0  0  0  0  0  0  0  0  0
   16.1682    9.6603   -3.7224 C   0  0  0  0  0  0  0  0  0  0  0  0
   15.5836   10.4949   -2.7988 C   0  0  0  0  0  0  0  0  0  0  0  0
   15.6062   10.0657   -1.4882 C   0  0  0  0  0  0  0  0  0  0  0  0
   16.1899    8.8543   -1.1292 C   0  0  0  0  0  0  0  0  0  0  0  0
   14.9761   11.7567   -3.1928 C   0  0  0  0  0  0  0  0  0  0  0  0
   13.4791   11.7470   -3.3378 C   0  0  1  0  0  0  0  0  0  0  0  0
   12.9859   11.0523   -4.5366 C   0  0  0  0  0  0  0  0  0  0  0  0
   13.1323   11.6422   -5.8075 N   0  0  0  0  0  0  0  0  0  0  0  0
   12.4335    9.9369   -4.4509 O   0  0  0  0  0  0  0  0  0  0  0  0
   12.5295   11.0534   -6.9921 C   0  0  0  0  0  0  0  0  0  0  0  0
   12.8260   11.3526   -2.1794 O   0  0  0  0  0  0  0  0  0  0  0  0
   11.7946   12.1663   -1.8022 C   0  0  0  0  0  0  0  0  0  0  0  0
   12.3862   13.4246   -1.2001 C   0  0  0  0  0  0  0  0  0  0  0  0
   22.8865    4.4524    2.2666 O   0  0  0  0  0  0  0  0  0  0  0  0
   23.5753    3.8065    3.2979 C   0  0  0  0  0  0  0  0  0  0  0  0
   13.8568   12.7888   -5.9132 O   0  0  0  0  0  0  0  0  0  0  0  0
   13.3679   13.6143   -6.9164 C   0  0  0  0  0  0  0  0  0  0  0  0
 26 27  1  0
  2 26  1  0
 28 29  1  0
 20 28  1  0
  1  2  2  0
  2  3  1  0
  3  4  2  0
  4  5  1  0
  5  6  2  0
  6  1  1  0
  4  7  1  0
  7  8  1  0
  7  9  2  0
  8 10  1  0
 10 11  1  0
 11 12  2  0
 12 13  1  0
 13 14  2  0
 14 15  1  0
 15 16  2  0
 16 11  1  0
 14 17  1  0
 18 17  1  1
 18 19  1  0
 19 20  1  0
 19 21  2  0
 20 22  1  0
 18 23  1  0
 23 24  1  0
 24 25  1  0
M  STY  2   1 SUP   2 SUP
M  SLB  2   1   1   2   2
M  SAL   1  2  26  27
M  SBL   1  1   2
M  SMT   1 OCH3
M  SBV   1   2    0.7144    0.4125
M  SAL   2  2  28  29
M  SBL   2  1   4
M  SMT   2 OCH3
M  SBV   2   4   -0.7144   -0.4125
M  END
$$$$
