
     RDKit          3D

 29 30  0  2  0  0  0  0  0  0999 V2000
   17.2914    9.9593  -12.4997 C   0  0  0  0  0  0  0  0  0  0  0  0
   16.1862    9.1457  -12.4312 C   0  0  0  0  0  0  0  0  0  0  0  0
   15.7566    8.6798  -11.2169 C   0  0  0  0  0  0  0  0  0  0  0  0
   16.3931    8.9913  -10.0088 C   0  0  0  0  0  0  0  0  0  0  0  0
   17.4893    9.8051  -10.1301 C   0  0  0  0  0  0  0  0  0  0  0  0
   17.9528   10.2965  -11.3514 C   0  0  0  0  0  0  0  0  0  0  0  0
   15.8715    8.4554   -8.7708 C   0  0  0  0  0  0  0  0  0  0  0  0
   16.3854    8.6256   -7.4171 C   0  0  0  0  0  0  0  0  0  0  0  0
   14.8066    7.7228   -8.8434 O   0  0  0  0  0  0  0  0  0  0  0  0
   15.7194    7.9876   -6.3887 O   0  0  0  0  0  0  0  0  0  0  0  0
   16.4276    7.6609   -5.2262 C   0  0  0  0  0  0  0  0  0  0  0  0
   15.9907    6.6991   -4.3670 C   0  0  0  0  0  0  0  0  0  0  0  0
   16.7080    6.3980   -3.2298 C   0  0  0  0  0  0  0  0  0  0  0  0
   17.8820    7.0300   -2.8929 C   0  0  0  0  0  0  0  0  0  0  0  0
   18.3225    8.0038   -3.7647 C   0  0  0  0  0  0  0  0  0  0  0  0
   17.6125    8.3228   -4.9185 C   0  0  0  0  0  0  0  0  0  0  0  0
   18.6120    6.6818   -1.6836 C   0  0  0  0  0  0  0  0  0  0  0  0
   18.4283    7.6116   -0.5158 C   0  0  1  0  0  0  0  0  0  0  0  0
   17.0265    7.9222   -0.1968 C   0  0  0  0  0  0  0  0  0  0  0  0
   16.2318    6.9835    0.4901 N   0  0  0  0  0  0  0  0  0  0  0  0
   16.5196    9.0136   -0.5260 O   0  0  0  0  0  0  0  0  0  0  0  0
   14.7970    7.1656    0.6365 C   0  0  0  0  0  0  0  0  0  0  0  0
   19.1633    7.2328    0.5979 O   0  0  0  0  0  0  0  0  0  0  0  0
   19.2081    8.1668    1.5949 C   0  0  0  0  0  0  0  0  0  0  0  0
   19.7125    9.4652    0.9986 C   0  0  0  0  0  0  0  0  0  0  0  0
   15.4691    8.7659  -13.5631 O   0  0  0  0  0  0  0  0  0  0  0  0
   16.0612    8.2829  -14.7341 C   0  0  0  0  0  0  0  0  0  0  0  0
   16.8347    5.8867    1.0232 O   0  0  0  0  0  0  0  0  0  0  0  0
   16.8455    5.9303    2.4106 C   0  0  0  0  0  0  0  0  0  0  0  0
 26 27  1  0
  2 26  1  0
 28 29  1  0
 20 28  1  0
  1  2  2  0
  2  3  1  0
  3  4  2  0
  4  5  1  0
  5  6  2  0
  6  1  1  0
  4  7  1  0
  7  8  1  0
  7  9  2  0
  8 10  1  0
 10 11  1  0
 11 12  2  0
 12 13  1  0
 13 14  2  0
 14 15  1  0
 15 16  2  0
 16 11  1  0
 14 17  1  0
 18 17  1  6
 18 19  1  0
 19 20  1  0
 19 21  2  0
 20 22  1  0
 18 23  1  0
 23 24  1  0
 24 25  1  0
M  STY  2   1 SUP   2 SUP
M  SLB  2   1   1   2   2
M  SAL   1  2  26  27
M  SBL   1  1   2
M  SMT   1 OCH3
M  SBV   1   2    0.7144    0.4125
M  SAL   2  2  28  29
M  SBL   2  1   4
M  SMT   2 OCH3
M  SBV   2   4   -0.7144   -0.4125
M  END
$$$$
