
     RDKit          3D

 29 30  0  2  0  0  0  0  0  0999 V2000
   15.9675    9.3984    0.3962 C   0  0  0  0  0  0  0  0  0  0  0  0
   15.4516    9.7298   -0.8333 C   0  0  0  0  0  0  0  0  0  0  0  0
   16.0440    9.2529   -1.9725 C   0  0  0  0  0  0  0  0  0  0  0  0
   17.1742    8.4257   -1.9588 C   0  0  0  0  0  0  0  0  0  0  0  0
   17.6503    8.1241   -0.7094 C   0  0  0  0  0  0  0  0  0  0  0  0
   17.0704    8.5934    0.4702 C   0  0  0  0  0  0  0  0  0  0  0  0
   17.7358    7.9673   -3.2104 C   0  0  0  0  0  0  0  0  0  0  0  0
   17.1555    8.0317   -4.5463 C   0  0  0  0  0  0  0  0  0  0  0  0
   18.9095    7.4226   -3.1699 O   0  0  0  0  0  0  0  0  0  0  0  0
   17.9197    7.5800   -5.6046 O   0  0  0  0  0  0  0  0  0  0  0  0
   17.5213    7.8969   -6.9086 C   0  0  0  0  0  0  0  0  0  0  0  0
   18.2623    8.7152   -7.7058 C   0  0  0  0  0  0  0  0  0  0  0  0
   17.8461    9.0103   -8.9857 C   0  0  0  0  0  0  0  0  0  0  0  0
   16.6860    8.5130   -9.5316 C   0  0  0  0  0  0  0  0  0  0  0  0
   15.9371    7.6845   -8.7223 C   0  0  0  0  0  0  0  0  0  0  0  0
   16.3401    7.3742   -7.4267 C   0  0  0  0  0  0  0  0  0  0  0  0
   16.2815    8.8464  -10.8888 C   0  0  0  0  0  0  0  0  0  0  0  0
   15.1508    9.8303  -11.0134 C   0  0  1  0  0  0  0  0  0  0  0  0
   15.4405   11.1658  -10.4697 C   0  0  0  0  0  0  0  0  0  0  0  0
   14.3927   11.9813   -9.9989 N   0  0  0  0  0  0  0  0  0  0  0  0
   16.6098   11.5976  -10.4160 O   0  0  0  0  0  0  0  0  0  0  0  0
   14.6085   13.3808   -9.6700 C   0  0  0  0  0  0  0  0  0  0  0  0
   14.6098    9.8737  -12.2899 O   0  0  0  0  0  0  0  0  0  0  0  0
   15.0506    8.8887  -13.1287 C   0  0  0  0  0  0  0  0  0  0  0  0
   13.9171    7.9041  -13.3321 C   0  0  0  0  0  0  0  0  0  0  0  0
   14.3313   10.5449   -0.9764 O   0  0  0  0  0  0  0  0  0  0  0  0
   13.6389   11.1120    0.0978 C   0  0  0  0  0  0  0  0  0  0  0  0
   13.1562   11.4329   -9.8537 O   0  0  0  0  0  0  0  0  0  0  0  0
   13.0722   10.6519   -8.7091 C   0  0  0  0  0  0  0  0  0  0  0  0
 26 27  1  0
  2 26  1  0
 28 29  1  0
 20 28  1  0
  1  2  2  0
  2  3  1  0
  3  4  2  0
  4  5  1  0
  5  6  2  0
  6  1  1  0
  4  7  1  0
  7  8  1  0
  7  9  2  0
  8 10  1  0
 10 11  1  0
 11 12  2  0
 12 13  1  0
 13 14  2  0
 14 15  1  0
 15 16  2  0
 16 11  1  0
 14 17  1  0
 18 17  1  6
 18 19  1  0
 19 20  1  0
 19 21  2  0
 20 22  1  0
 18 23  1  0
 23 24  1  0
 24 25  1  0
M  STY  2   1 SUP   2 SUP
M  SLB  2   1   1   2   2
M  SAL   1  2  26  27
M  SBL   1  1   2
M  SMT   1 OCH3
M  SBV   1   2    0.7144    0.4125
M  SAL   2  2  28  29
M  SBL   2  1   4
M  SMT   2 OCH3
M  SBV   2   4   -0.7144   -0.4125
M  END
$$$$
