
     RDKit          3D

 29 30  0  2  0  0  0  0  0  0999 V2000
   15.3778    9.5789   -7.7209 C   0  0  0  0  0  0  0  0  0  0  0  0
   16.7483    9.6678   -7.6805 C   0  0  0  0  0  0  0  0  0  0  0  0
   17.4500    8.9619   -6.7394 C   0  0  0  0  0  0  0  0  0  0  0  0
   16.8380    8.1329   -5.7907 C   0  0  0  0  0  0  0  0  0  0  0  0
   15.4709    8.0781   -5.8725 C   0  0  0  0  0  0  0  0  0  0  0  0
   14.7265    8.7843   -6.8185 C   0  0  0  0  0  0  0  0  0  0  0  0
   17.6563    7.4233   -4.8322 C   0  0  0  0  0  0  0  0  0  0  0  0
   17.3141    7.0002   -3.4798 C   0  0  0  0  0  0  0  0  0  0  0  0
   18.8582    7.1085   -5.1961 O   0  0  0  0  0  0  0  0  0  0  0  0
   18.0499    5.9746   -2.9185 O   0  0  0  0  0  0  0  0  0  0  0  0
   18.4833    6.1016   -1.5934 C   0  0  0  0  0  0  0  0  0  0  0  0
   19.6288    5.5109   -1.1541 C   0  0  0  0  0  0  0  0  0  0  0  0
   20.0317    5.6526    0.1559 C   0  0  0  0  0  0  0  0  0  0  0  0
   19.3248    6.3801    1.0846 C   0  0  0  0  0  0  0  0  0  0  0  0
   18.1649    6.9774    0.6372 C   0  0  0  0  0  0  0  0  0  0  0  0
   17.7408    6.8464   -0.6819 C   0  0  0  0  0  0  0  0  0  0  0  0
   19.7847    6.5082    2.4589 C   0  0  0  0  0  0  0  0  0  0  0  0
   18.8714    5.9428    3.5116 C   0  0  1  0  0  0  0  0  0  0  0  0
   18.9729    4.4864    3.6902 C   0  0  0  0  0  0  0  0  0  0  0  0
   17.8068    3.7011    3.7804 N   0  0  0  0  0  0  0  0  0  0  0  0
   20.0843    3.9244    3.7645 O   0  0  0  0  0  0  0  0  0  0  0  0
   17.8738    2.2569    3.9328 C   0  0  0  0  0  0  0  0  0  0  0  0
   18.9319    6.6382    4.7103 O   0  0  0  0  0  0  0  0  0  0  0  0
   18.9512    7.9985    4.5787 C   0  0  0  0  0  0  0  0  0  0  0  0
   20.2448    8.3846    3.8905 C   0  0  0  0  0  0  0  0  0  0  0  0
   17.4705   10.4588   -8.5707 O   0  0  0  0  0  0  0  0  0  0  0  0
   16.9839   10.8746   -9.8138 C   0  0  0  0  0  0  0  0  0  0  0  0
   16.5979    4.3221    3.7220 O   0  0  0  0  0  0  0  0  0  0  0  0
   16.0936    4.5838    4.9886 C   0  0  0  0  0  0  0  0  0  0  0  0
 26 27  1  0
  2 26  1  0
 28 29  1  0
 20 28  1  0
  1  2  2  0
  2  3  1  0
  3  4  2  0
  4  5  1  0
  5  6  2  0
  6  1  1  0
  4  7  1  0
  7  8  1  0
  7  9  2  0
  8 10  1  0
 10 11  1  0
 11 12  2  0
 12 13  1  0
 13 14  2  0
 14 15  1  0
 15 16  2  0
 16 11  1  0
 14 17  1  0
 18 17  1  6
 18 19  1  0
 19 20  1  0
 19 21  2  0
 20 22  1  0
 18 23  1  0
 23 24  1  0
 24 25  1  0
M  STY  2   1 SUP   2 SUP
M  SLB  2   1   1   2   2
M  SAL   1  2  26  27
M  SBL   1  1   2
M  SMT   1 OCH3
M  SBV   1   2    0.7144    0.4125
M  SAL   2  2  28  29
M  SBL   2  1   4
M  SMT   2 OCH3
M  SBV   2   4   -0.7144   -0.4125
M  END
$$$$
