
     RDKit          3D

 29 30  0  2  0  0  0  0  0  0999 V2000
   20.2855    5.2186    6.4814 C   0  0  0  0  0  0  0  0  0  0  0  0
   19.9845    6.2635    5.6414 C   0  0  0  0  0  0  0  0  0  0  0  0
   19.4862    6.0112    4.3907 C   0  0  0  0  0  0  0  0  0  0  0  0
   19.2590    4.7178    3.9037 C   0  0  0  0  0  0  0  0  0  0  0  0
   19.5747    3.7110    4.7786 C   0  0  0  0  0  0  0  0  0  0  0  0
   20.0838    3.9338    6.0588 C   0  0  0  0  0  0  0  0  0  0  0  0
   18.7299    4.5426    2.5691 C   0  0  0  0  0  0  0  0  0  0  0  0
   18.6671    5.5103    1.4806 C   0  0  0  0  0  0  0  0  0  0  0  0
   18.2399    3.3815    2.2728 O   0  0  0  0  0  0  0  0  0  0  0  0
   18.1044    5.1032    0.2864 O   0  0  0  0  0  0  0  0  0  0  0  0
   18.0775    6.0005   -0.7877 C   0  0  0  0  0  0  0  0  0  0  0  0
   19.1852    6.2542   -1.5378 C   0  0  0  0  0  0  0  0  0  0  0  0
   19.1300    7.1426   -2.5896 C   0  0  0  0  0  0  0  0  0  0  0  0
   17.9847    7.8157   -2.9450 C   0  0  0  0  0  0  0  0  0  0  0  0
   16.8640    7.5570   -2.1837 C   0  0  0  0  0  0  0  0  0  0  0  0
   16.8990    6.6634   -1.1173 C   0  0  0  0  0  0  0  0  0  0  0  0
   17.9661    8.7446   -4.0645 C   0  0  0  0  0  0  0  0  0  0  0  0
   17.5118    8.1766   -5.3809 C   0  0  1  0  0  0  0  0  0  0  0  0
   16.0790    7.8504   -5.4435 C   0  0  0  0  0  0  0  0  0  0  0  0
   15.6431    6.7052   -6.1385 N   0  0  0  0  0  0  0  0  0  0  0  0
   15.2302    8.5760   -4.8870 O   0  0  0  0  0  0  0  0  0  0  0  0
   16.5668    5.6471   -6.5136 C   0  0  0  0  0  0  0  0  0  0  0  0
   17.9431    8.9210   -6.4689 O   0  0  0  0  0  0  0  0  0  0  0  0
   17.5292   10.2236   -6.4675 C   0  0  0  0  0  0  0  0  0  0  0  0
   16.4399   10.3705   -7.5104 C   0  0  0  0  0  0  0  0  0  0  0  0
   20.1669    7.5936    6.0116 O   0  0  0  0  0  0  0  0  0  0  0  0
   19.8115    8.6811    5.2079 C   0  0  0  0  0  0  0  0  0  0  0  0
   14.3252    6.6008   -6.4589 O   0  0  0  0  0  0  0  0  0  0  0  0
   14.0727    7.0527   -7.7470 C   0  0  0  0  0  0  0  0  0  0  0  0
 26 27  1  0
  2 26  1  0
 28 29  1  0
 20 28  1  0
  1  2  2  0
  2  3  1  0
  3  4  2  0
  4  5  1  0
  5  6  2  0
  6  1  1  0
  4  7  1  0
  7  8  1  0
  7  9  2  0
  8 10  1  0
 10 11  1  0
 11 12  2  0
 12 13  1  0
 13 14  2  0
 14 15  1  0
 15 16  2  0
 16 11  1  0
 14 17  1  0
 18 17  1  1
 18 19  1  0
 19 20  1  0
 19 21  2  0
 20 22  1  0
 18 23  1  0
 23 24  1  0
 24 25  1  0
M  STY  2   1 SUP   2 SUP
M  SLB  2   1   1   2   2
M  SAL   1  2  26  27
M  SBL   1  1   2
M  SMT   1 OCH3
M  SBV   1   2    0.7144    0.4125
M  SAL   2  2  28  29
M  SBL   2  1   4
M  SMT   2 OCH3
M  SBV   2   4   -0.7144   -0.4125
M  END
$$$$
