
     RDKit          3D

 29 30  0  2  0  0  0  0  0  0999 V2000
   20.9232    7.9898    0.3063 C   0  0  0  0  0  0  0  0  0  0  0  0
   19.9195    7.1340    0.6912 C   0  0  0  0  0  0  0  0  0  0  0  0
   18.9518    6.7700   -0.2072 C   0  0  0  0  0  0  0  0  0  0  0  0
   18.9232    7.2300   -1.5298 C   0  0  0  0  0  0  0  0  0  0  0  0
   19.9448    8.0803   -1.8645 C   0  0  0  0  0  0  0  0  0  0  0  0
   20.9456    8.4707   -0.9736 C   0  0  0  0  0  0  0  0  0  0  0  0
   17.8631    6.7943   -2.4121 C   0  0  0  0  0  0  0  0  0  0  0  0
   17.6089    7.1872   -3.7928 C   0  0  0  0  0  0  0  0  0  0  0  0
   17.0111    5.9416   -1.9399 O   0  0  0  0  0  0  0  0  0  0  0  0
   16.6728    6.4652   -4.5075 O   0  0  0  0  0  0  0  0  0  0  0  0
   16.4086    6.8288   -5.8333 C   0  0  0  0  0  0  0  0  0  0  0  0
   15.1464    6.8105   -6.3438 C   0  0  0  0  0  0  0  0  0  0  0  0
   14.9153    7.1734   -7.6528 C   0  0  0  0  0  0  0  0  0  0  0  0
   15.9152    7.5683   -8.5104 C   0  0  0  0  0  0  0  0  0  0  0  0
   17.1928    7.5859   -7.9911 C   0  0  0  0  0  0  0  0  0  0  0  0
   17.4471    7.2230   -6.6717 C   0  0  0  0  0  0  0  0  0  0  0  0
   15.6303    7.9465   -9.8861 C   0  0  0  0  0  0  0  0  0  0  0  0
   15.2536    9.3858  -10.1062 C   0  0  1  0  0  0  0  0  0  0  0  0
   14.9439    9.7296  -11.5022 C   0  0  0  0  0  0  0  0  0  0  0  0
   15.6591   10.7528  -12.1550 N   0  0  0  0  0  0  0  0  0  0  0  0
   14.0495    9.1264  -12.1289 O   0  0  0  0  0  0  0  0  0  0  0  0
   15.4101   11.0835  -13.5485 C   0  0  0  0  0  0  0  0  0  0  0  0
   14.2913    9.8356   -9.2141 O   0  0  0  0  0  0  0  0  0  0  0  0
   13.8935   11.1284   -9.4101 C   0  0  0  0  0  0  0  0  0  0  0  0
   14.5038   11.9780   -8.3139 C   0  0  0  0  0  0  0  0  0  0  0  0
   19.8402    6.6096    1.9790 O   0  0  0  0  0  0  0  0  0  0  0  0
   18.9045    5.6478    2.3717 C   0  0  0  0  0  0  0  0  0  0  0  0
   16.6010   11.4385  -11.4526 O   0  0  0  0  0  0  0  0  0  0  0  0
   17.8837   10.9977  -11.7482 C   0  0  0  0  0  0  0  0  0  0  0  0
 26 27  1  0
  2 26  1  0
 28 29  1  0
 20 28  1  0
  1  2  2  0
  2  3  1  0
  3  4  2  0
  4  5  1  0
  5  6  2  0
  6  1  1  0
  4  7  1  0
  7  8  1  0
  7  9  2  0
  8 10  1  0
 10 11  1  0
 11 12  2  0
 12 13  1  0
 13 14  2  0
 14 15  1  0
 15 16  2  0
 16 11  1  0
 14 17  1  0
 18 17  1  6
 18 19  1  0
 19 20  1  0
 19 21  2  0
 20 22  1  0
 18 23  1  0
 23 24  1  0
 24 25  1  0
M  STY  2   1 SUP   2 SUP
M  SLB  2   1   1   2   2
M  SAL   1  2  26  27
M  SBL   1  1   2
M  SMT   1 OCH3
M  SBV   1   2    0.7144    0.4125
M  SAL   2  2  28  29
M  SBL   2  1   4
M  SMT   2 OCH3
M  SBV   2   4   -0.7144   -0.4125
M  END
$$$$
