
     RDKit          3D

 29 30  0  2  0  0  0  0  0  0999 V2000
   12.0466   10.6856    0.5227 C   0  0  0  0  0  0  0  0  0  0  0  0
   13.2994   10.9804    1.0038 C   0  0  0  0  0  0  0  0  0  0  0  0
   14.3841   10.2698    0.5625 C   0  0  0  0  0  0  0  0  0  0  0  0
   14.2902    9.2331   -0.3747 C   0  0  0  0  0  0  0  0  0  0  0  0
   13.0206    8.9779   -0.8237 C   0  0  0  0  0  0  0  0  0  0  0  0
   11.8951    9.6828   -0.3946 C   0  0  0  0  0  0  0  0  0  0  0  0
   15.4882    8.5345   -0.7854 C   0  0  0  0  0  0  0  0  0  0  0  0
   15.6717    7.6266   -1.9113 C   0  0  0  0  0  0  0  0  0  0  0  0
   16.5560    8.7210   -0.0776 O   0  0  0  0  0  0  0  0  0  0  0  0
   16.9256    7.5567   -2.4866 O   0  0  0  0  0  0  0  0  0  0  0  0
   17.1034    8.0594   -3.7809 C   0  0  0  0  0  0  0  0  0  0  0  0
   18.1793    7.7164   -4.5417 C   0  0  0  0  0  0  0  0  0  0  0  0
   18.3290    8.2265   -5.8129 C   0  0  0  0  0  0  0  0  0  0  0  0
   17.4276    9.0929   -6.3856 C   0  0  0  0  0  0  0  0  0  0  0  0
   16.3387    9.4389   -5.6130 C   0  0  0  0  0  0  0  0  0  0  0  0
   16.1692    8.9347   -4.3268 C   0  0  0  0  0  0  0  0  0  0  0  0
   17.6199    9.6082   -7.7325 C   0  0  0  0  0  0  0  0  0  0  0  0
   16.7262    9.0244   -8.7920 C   0  0  1  0  0  0  0  0  0  0  0  0
   15.7432    9.9662   -9.3488 C   0  0  0  0  0  0  0  0  0  0  0  0
   14.5385    9.4883   -9.9009 N   0  0  0  0  0  0  0  0  0  0  0  0
   15.9566   11.1954   -9.3427 O   0  0  0  0  0  0  0  0  0  0  0  0
   13.6547   10.3564  -10.6616 C   0  0  0  0  0  0  0  0  0  0  0  0
   17.4266    8.3350   -9.7708 O   0  0  0  0  0  0  0  0  0  0  0  0
   18.6931    8.7969   -9.9964 C   0  0  0  0  0  0  0  0  0  0  0  0
   18.5879   10.0905  -10.7783 C   0  0  0  0  0  0  0  0  0  0  0  0
   13.5205   11.9890    1.9384 O   0  0  0  0  0  0  0  0  0  0  0  0
   14.3476   13.0932    1.7112 C   0  0  0  0  0  0  0  0  0  0  0  0
   14.2078    8.1827   -9.7096 O   0  0  0  0  0  0  0  0  0  0  0  0
   13.0701    8.0510   -8.9251 C   0  0  0  0  0  0  0  0  0  0  0  0
 26 27  1  0
  2 26  1  0
 28 29  1  0
 20 28  1  0
  1  2  2  0
  2  3  1  0
  3  4  2  0
  4  5  1  0
  5  6  2  0
  6  1  1  0
  4  7  1  0
  7  8  1  0
  7  9  2  0
  8 10  1  0
 10 11  1  0
 11 12  2  0
 12 13  1  0
 13 14  2  0
 14 15  1  0
 15 16  2  0
 16 11  1  0
 14 17  1  0
 18 17  1  6
 18 19  1  0
 19 20  1  0
 19 21  2  0
 20 22  1  0
 18 23  1  0
 23 24  1  0
 24 25  1  0
M  STY  2   1 SUP   2 SUP
M  SLB  2   1   1   2   2
M  SAL   1  2  26  27
M  SBL   1  1   2
M  SMT   1 OCH3
M  SBV   1   2    0.7144    0.4125
M  SAL   2  2  28  29
M  SBL   2  1   4
M  SMT   2 OCH3
M  SBV   2   4   -0.7144   -0.4125
M  END
$$$$
