
     RDKit          3D

 29 30  0  2  0  0  0  0  0  0999 V2000
   22.4139    3.9277    5.9162 C   0  0  0  0  0  0  0  0  0  0  0  0
   21.3344    3.0781    5.9439 C   0  0  0  0  0  0  0  0  0  0  0  0
   20.4116    3.1147    4.9322 C   0  0  0  0  0  0  0  0  0  0  0  0
   20.5050    3.9895    3.8423 C   0  0  0  0  0  0  0  0  0  0  0  0
   21.5985    4.8157    3.8608 C   0  0  0  0  0  0  0  0  0  0  0  0
   22.5563    4.8036    4.8758 C   0  0  0  0  0  0  0  0  0  0  0  0
   19.4848    3.9610    2.8175 C   0  0  0  0  0  0  0  0  0  0  0  0
   19.2362    4.9261    1.7535 C   0  0  0  0  0  0  0  0  0  0  0  0
   18.6688    2.9560    2.8204 O   0  0  0  0  0  0  0  0  0  0  0  0
   18.7177    4.4552    0.5628 O   0  0  0  0  0  0  0  0  0  0  0  0
   18.6691    5.3164   -0.5397 C   0  0  0  0  0  0  0  0  0  0  0  0
   18.1276    6.5628   -0.4525 C   0  0  0  0  0  0  0  0  0  0  0  0
   18.0930    7.3896   -1.5542 C   0  0  0  0  0  0  0  0  0  0  0  0
   18.5890    7.0240   -2.7836 C   0  0  0  0  0  0  0  0  0  0  0  0
   19.1369    5.7612   -2.8694 C   0  0  0  0  0  0  0  0  0  0  0  0
   19.1814    4.9109   -1.7685 C   0  0  0  0  0  0  0  0  0  0  0  0
   18.5360    7.9271   -3.9230 C   0  0  0  0  0  0  0  0  0  0  0  0
   17.2915    7.8498   -4.7640 C   0  0  1  0  0  0  0  0  0  0  0  0
   16.0416    8.0985   -4.0298 C   0  0  0  0  0  0  0  0  0  0  0  0
   15.1978    7.0247   -3.6841 N   0  0  0  0  0  0  0  0  0  0  0  0
   15.7084    9.2553   -3.7023 O   0  0  0  0  0  0  0  0  0  0  0  0
   15.4641    5.6713   -4.1431 C   0  0  0  0  0  0  0  0  0  0  0  0
   17.3839    8.5864   -5.9357 O   0  0  0  0  0  0  0  0  0  0  0  0
   16.8833    7.9602   -7.0427 C   0  0  0  0  0  0  0  0  0  0  0  0
   15.4348    8.3758   -7.2015 C   0  0  0  0  0  0  0  0  0  0  0  0
   21.1320    2.1634    6.9744 O   0  0  0  0  0  0  0  0  0  0  0  0
   21.7904    2.2207    8.2066 C   0  0  0  0  0  0  0  0  0  0  0  0
   14.1129    7.2752   -2.9024 O   0  0  0  0  0  0  0  0  0  0  0  0
   13.3066    6.1531   -2.7685 C   0  0  0  0  0  0  0  0  0  0  0  0
 26 27  1  0
  2 26  1  0
 28 29  1  0
 20 28  1  0
  1  2  2  0
  2  3  1  0
  3  4  2  0
  4  5  1  0
  5  6  2  0
  6  1  1  0
  4  7  1  0
  7  8  1  0
  7  9  2  0
  8 10  1  0
 10 11  1  0
 11 12  2  0
 12 13  1  0
 13 14  2  0
 14 15  1  0
 15 16  2  0
 16 11  1  0
 14 17  1  0
 18 17  1  1
 18 19  1  0
 19 20  1  0
 19 21  2  0
 20 22  1  0
 18 23  1  0
 23 24  1  0
 24 25  1  0
M  STY  2   1 SUP   2 SUP
M  SLB  2   1   1   2   2
M  SAL   1  2  26  27
M  SBL   1  1   2
M  SMT   1 OCH3
M  SBV   1   2    0.7144    0.4125
M  SAL   2  2  28  29
M  SBL   2  1   4
M  SMT   2 OCH3
M  SBV   2   4   -0.7144   -0.4125
M  END
$$$$
