
     RDKit          3D

 29 30  0  2  0  0  0  0  0  0999 V2000
   18.2179    8.0304    5.3606 C   0  0  0  0  0  0  0  0  0  0  0  0
   18.3859    6.7350    4.9345 C   0  0  0  0  0  0  0  0  0  0  0  0
   18.7645    6.4860    3.6418 C   0  0  0  0  0  0  0  0  0  0  0  0
   18.9967    7.4996    2.7034 C   0  0  0  0  0  0  0  0  0  0  0  0
   18.8159    8.7731    3.1769 C   0  0  0  0  0  0  0  0  0  0  0  0
   18.4309    9.0608    4.4872 C   0  0  0  0  0  0  0  0  0  0  0  0
   19.3938    7.1466    1.3582 C   0  0  0  0  0  0  0  0  0  0  0  0
   19.7116    8.0288    0.2419 C   0  0  0  0  0  0  0  0  0  0  0  0
   19.4882    5.8861    1.0789 O   0  0  0  0  0  0  0  0  0  0  0  0
   20.0667    7.4472   -0.9597 O   0  0  0  0  0  0  0  0  0  0  0  0
   19.1077    7.3573   -1.9755 C   0  0  0  0  0  0  0  0  0  0  0  0
   19.4507    7.0718   -3.2620 C   0  0  0  0  0  0  0  0  0  0  0  0
   18.4857    6.9895   -4.2420 C   0  0  0  0  0  0  0  0  0  0  0  0
   17.1467    7.1844   -3.9960 C   0  0  0  0  0  0  0  0  0  0  0  0
   16.8019    7.4734   -2.6922 C   0  0  0  0  0  0  0  0  0  0  0  0
   17.7614    7.5611   -1.6879 C   0  0  0  0  0  0  0  0  0  0  0  0
   16.1573    7.0865   -5.0580 C   0  0  0  0  0  0  0  0  0  0  0  0
   15.5243    8.3818   -5.4863 C   0  0  1  0  0  0  0  0  0  0  0  0
   16.4180    9.2816   -6.2312 C   0  0  0  0  0  0  0  0  0  0  0  0
   16.2104   10.6745   -6.1961 N   0  0  0  0  0  0  0  0  0  0  0  0
   17.3686    8.8315   -6.9024 O   0  0  0  0  0  0  0  0  0  0  0  0
   17.1163   11.5944   -6.8642 C   0  0  0  0  0  0  0  0  0  0  0  0
   14.2973    8.2045   -6.1085 O   0  0  0  0  0  0  0  0  0  0  0  0
   14.1752    7.0337   -6.8029 C   0  0  0  0  0  0  0  0  0  0  0  0
   14.5446    5.8961   -5.8726 C   0  0  0  0  0  0  0  0  0  0  0  0
   18.1848    5.6422    5.7741 O   0  0  0  0  0  0  0  0  0  0  0  0
   18.9257    4.4587    5.7024 C   0  0  0  0  0  0  0  0  0  0  0  0
   15.1336   11.1550   -5.5177 O   0  0  0  0  0  0  0  0  0  0  0  0
   15.5070   11.7655   -4.3281 C   0  0  0  0  0  0  0  0  0  0  0  0
 26 27  1  0
  2 26  1  0
 28 29  1  0
 20 28  1  0
  1  2  2  0
  2  3  1  0
  3  4  2  0
  4  5  1  0
  5  6  2  0
  6  1  1  0
  4  7  1  0
  7  8  1  0
  7  9  2  0
  8 10  1  0
 10 11  1  0
 11 12  2  0
 12 13  1  0
 13 14  2  0
 14 15  1  0
 15 16  2  0
 16 11  1  0
 14 17  1  0
 18 17  1  6
 18 19  1  0
 19 20  1  0
 19 21  2  0
 20 22  1  0
 18 23  1  0
 23 24  1  0
 24 25  1  0
M  STY  2   1 SUP   2 SUP
M  SLB  2   1   1   2   2
M  SAL   1  2  26  27
M  SBL   1  1   2
M  SMT   1 OCH3
M  SBV   1   2    0.7144    0.4125
M  SAL   2  2  28  29
M  SBL   2  1   4
M  SMT   2 OCH3
M  SBV   2   4   -0.7144   -0.4125
M  END
$$$$
