
     RDKit          3D

 29 30  0  2  0  0  0  0  0  0999 V2000
   19.8055    3.5976    6.2596 C   0  0  0  0  0  0  0  0  0  0  0  0
   19.9664    2.4993    5.4499 C   0  0  0  0  0  0  0  0  0  0  0  0
   19.7759    2.6147    4.0984 C   0  0  0  0  0  0  0  0  0  0  0  0
   19.4174    3.8170    3.4758 C   0  0  0  0  0  0  0  0  0  0  0  0
   19.2692    4.8821    4.3256 C   0  0  0  0  0  0  0  0  0  0  0  0
   19.4558    4.7981    5.7062 C   0  0  0  0  0  0  0  0  0  0  0  0
   19.2364    3.8491    2.0411 C   0  0  0  0  0  0  0  0  0  0  0  0
   19.3096    4.9927    1.1399 C   0  0  0  0  0  0  0  0  0  0  0  0
   18.9732    2.7274    1.4510 O   0  0  0  0  0  0  0  0  0  0  0  0
   19.1458    4.7607   -0.2120 O   0  0  0  0  0  0  0  0  0  0  0  0
   18.8320    5.8384   -1.0486 C   0  0  0  0  0  0  0  0  0  0  0  0
   18.5868    5.6670   -2.3770 C   0  0  0  0  0  0  0  0  0  0  0  0
   18.2801    6.7459   -3.1772 C   0  0  0  0  0  0  0  0  0  0  0  0
   18.2024    8.0346   -2.7033 C   0  0  0  0  0  0  0  0  0  0  0  0
   18.4512    8.2056   -1.3575 C   0  0  0  0  0  0  0  0  0  0  0  0
   18.7627    7.1289   -0.5324 C   0  0  0  0  0  0  0  0  0  0  0  0
   17.8732    9.1477   -3.5802 C   0  0  0  0  0  0  0  0  0  0  0  0
   16.4276    9.2635   -3.9789 C   0  0  1  0  0  0  0  0  0  0  0  0
   16.0042    8.3180   -5.0229 C   0  0  0  0  0  0  0  0  0  0  0  0
   15.8946    8.7435   -6.3614 N   0  0  0  0  0  0  0  0  0  0  0  0
   15.7366    7.1316   -4.7447 O   0  0  0  0  0  0  0  0  0  0  0  0
   15.7288   10.1472   -6.7009 C   0  0  0  0  0  0  0  0  0  0  0  0
   15.5669    9.2865   -2.8914 O   0  0  0  0  0  0  0  0  0  0  0  0
   15.7140   10.3705   -2.0719 C   0  0  0  0  0  0  0  0  0  0  0  0
   15.4747   11.6183   -2.8975 C   0  0  0  0  0  0  0  0  0  0  0  0
   20.3215    1.2494    5.9512 O   0  0  0  0  0  0  0  0  0  0  0  0
   20.8340    1.0427    7.2356 C   0  0  0  0  0  0  0  0  0  0  0  0
   15.9469    7.8082   -7.3478 O   0  0  0  0  0  0  0  0  0  0  0  0
   14.8504    7.8937   -8.1949 C   0  0  0  0  0  0  0  0  0  0  0  0
 26 27  1  0
  2 26  1  0
 28 29  1  0
 20 28  1  0
  1  2  2  0
  2  3  1  0
  3  4  2  0
  4  5  1  0
  5  6  2  0
  6  1  1  0
  4  7  1  0
  7  8  1  0
  7  9  2  0
  8 10  1  0
 10 11  1  0
 11 12  2  0
 12 13  1  0
 13 14  2  0
 14 15  1  0
 15 16  2  0
 16 11  1  0
 14 17  1  0
 18 17  1  1
 18 19  1  0
 19 20  1  0
 19 21  2  0
 20 22  1  0
 18 23  1  0
 23 24  1  0
 24 25  1  0
M  STY  2   1 SUP   2 SUP
M  SLB  2   1   1   2   2
M  SAL   1  2  26  27
M  SBL   1  1   2
M  SMT   1 OCH3
M  SBV   1   2    0.7144    0.4125
M  SAL   2  2  28  29
M  SBL   2  1   4
M  SMT   2 OCH3
M  SBV   2   4   -0.7144   -0.4125
M  END
$$$$
