
     RDKit          3D

 29 30  0  2  0  0  0  0  0  0999 V2000
   17.3447    9.4509   -6.0202 C   0  0  0  0  0  0  0  0  0  0  0  0
   16.5430    8.3389   -5.9283 C   0  0  0  0  0  0  0  0  0  0  0  0
   16.9002    7.3071   -5.1012 C   0  0  0  0  0  0  0  0  0  0  0  0
   18.0646    7.3180   -4.3229 C   0  0  0  0  0  0  0  0  0  0  0  0
   18.8298    8.4481   -4.4496 C   0  0  0  0  0  0  0  0  0  0  0  0
   18.4944    9.5164   -5.2827 C   0  0  0  0  0  0  0  0  0  0  0  0
   18.3653    6.1845   -3.4762 C   0  0  0  0  0  0  0  0  0  0  0  0
   18.4769    6.1379   -2.0234 C   0  0  0  0  0  0  0  0  0  0  0  0
   18.5671    5.0460   -4.0584 O   0  0  0  0  0  0  0  0  0  0  0  0
   18.1592    4.9525   -1.3892 O   0  0  0  0  0  0  0  0  0  0  0  0
   18.3180    4.8660   -0.0011 C   0  0  0  0  0  0  0  0  0  0  0  0
   17.4522    4.1593    0.7769 C   0  0  0  0  0  0  0  0  0  0  0  0
   17.6327    4.0912    2.1412 C   0  0  0  0  0  0  0  0  0  0  0  0
   18.6705    4.7145    2.7936 C   0  0  0  0  0  0  0  0  0  0  0  0
   19.5461    5.4297    2.0035 C   0  0  0  0  0  0  0  0  0  0  0  0
   19.3812    5.5108    0.6239 C   0  0  0  0  0  0  0  0  0  0  0  0
   18.8284    4.6168    4.2366 C   0  0  0  0  0  0  0  0  0  0  0  0
   19.4887    3.3630    4.7409 C   0  0  1  0  0  0  0  0  0  0  0  0
   18.9282    2.1165    4.1975 C   0  0  0  0  0  0  0  0  0  0  0  0
   18.2339    1.2260    5.0398 N   0  0  0  0  0  0  0  0  0  0  0  0
   19.0563    1.8272    2.9906 O   0  0  0  0  0  0  0  0  0  0  0  0
   17.9881   -0.1527    4.6497 C   0  0  0  0  0  0  0  0  0  0  0  0
   20.8727    3.4112    4.6617 O   0  0  0  0  0  0  0  0  0  0  0  0
   21.4869    3.9512    5.7567 C   0  0  0  0  0  0  0  0  0  0  0  0
   21.5285    5.4552    5.5769 C   0  0  0  0  0  0  0  0  0  0  0  0
   15.3603    8.2109   -6.6525 O   0  0  0  0  0  0  0  0  0  0  0  0
   14.6361    7.0193   -6.7562 C   0  0  0  0  0  0  0  0  0  0  0  0
   17.7894    1.6806    6.2424 O   0  0  0  0  0  0  0  0  0  0  0  0
   16.6458    2.4558    6.1074 C   0  0  0  0  0  0  0  0  0  0  0  0
 26 27  1  0
  2 26  1  0
 28 29  1  0
 20 28  1  0
  1  2  2  0
  2  3  1  0
  3  4  2  0
  4  5  1  0
  5  6  2  0
  6  1  1  0
  4  7  1  0
  7  8  1  0
  7  9  2  0
  8 10  1  0
 10 11  1  0
 11 12  2  0
 12 13  1  0
 13 14  2  0
 14 15  1  0
 15 16  2  0
 16 11  1  0
 14 17  1  0
 18 17  1  6
 18 19  1  0
 19 20  1  0
 19 21  2  0
 20 22  1  0
 18 23  1  0
 23 24  1  0
 24 25  1  0
M  STY  2   1 SUP   2 SUP
M  SLB  2   1   1   2   2
M  SAL   1  2  26  27
M  SBL   1  1   2
M  SMT   1 OCH3
M  SBV   1   2    0.7144    0.4125
M  SAL   2  2  28  29
M  SBL   2  1   4
M  SMT   2 OCH3
M  SBV   2   4   -0.7144   -0.4125
M  END
$$$$
