
     RDKit          3D

 29 30  0  2  0  0  0  0  0  0999 V2000
   20.6945    4.0420    6.2410 C   0  0  0  0  0  0  0  0  0  0  0  0
   20.0210    2.9509    5.7472 C   0  0  0  0  0  0  0  0  0  0  0  0
   19.3982    3.0277    4.5296 C   0  0  0  0  0  0  0  0  0  0  0  0
   19.4069    4.1823    3.7368 C   0  0  0  0  0  0  0  0  0  0  0  0
   20.0912    5.2420    4.2728 C   0  0  0  0  0  0  0  0  0  0  0  0
   20.7362    5.1967    5.5097 C   0  0  0  0  0  0  0  0  0  0  0  0
   18.7224    4.1758    2.4627 C   0  0  0  0  0  0  0  0  0  0  0  0
   18.9845    4.9935    1.2845 C   0  0  0  0  0  0  0  0  0  0  0  0
   17.7417    3.3429    2.3202 O   0  0  0  0  0  0  0  0  0  0  0  0
   18.0788    4.9343    0.2431 O   0  0  0  0  0  0  0  0  0  0  0  0
   18.1337    5.9138   -0.7555 C   0  0  0  0  0  0  0  0  0  0  0  0
   17.7560    7.2005   -0.5192 C   0  0  0  0  0  0  0  0  0  0  0  0
   17.8203    8.1443   -1.5211 C   0  0  0  0  0  0  0  0  0  0  0  0
   18.2582    7.8603   -2.7934 C   0  0  0  0  0  0  0  0  0  0  0  0
   18.6401    6.5564   -3.0304 C   0  0  0  0  0  0  0  0  0  0  0  0
   18.5826    5.5883   -2.0320 C   0  0  0  0  0  0  0  0  0  0  0  0
   18.3137    8.8857   -3.8240 C   0  0  0  0  0  0  0  0  0  0  0  0
   16.9884    9.4362   -4.2739 C   0  0  1  0  0  0  0  0  0  0  0  0
   16.0983    8.4483   -4.9025 C   0  0  0  0  0  0  0  0  0  0  0  0
   16.2820    8.0869   -6.2516 N   0  0  0  0  0  0  0  0  0  0  0  0
   15.1718    7.9167   -4.2577 O   0  0  0  0  0  0  0  0  0  0  0  0
   15.3784    7.1654   -6.9208 C   0  0  0  0  0  0  0  0  0  0  0  0
   16.3543   10.1872   -3.2952 O   0  0  0  0  0  0  0  0  0  0  0  0
   15.9192   11.4141   -3.7118 C   0  0  0  0  0  0  0  0  0  0  0  0
   14.5772   11.2299   -4.3907 C   0  0  0  0  0  0  0  0  0  0  0  0
   19.9416    1.7468    6.4424 O   0  0  0  0  0  0  0  0  0  0  0  0
   19.3773    0.5803    5.9171 C   0  0  0  0  0  0  0  0  0  0  0  0
   17.3331    8.6203   -6.9308 O   0  0  0  0  0  0  0  0  0  0  0  0
   16.9950    8.9260   -8.2420 C   0  0  0  0  0  0  0  0  0  0  0  0
 26 27  1  0
  2 26  1  0
 28 29  1  0
 20 28  1  0
  1  2  2  0
  2  3  1  0
  3  4  2  0
  4  5  1  0
  5  6  2  0
  6  1  1  0
  4  7  1  0
  7  8  1  0
  7  9  2  0
  8 10  1  0
 10 11  1  0
 11 12  2  0
 12 13  1  0
 13 14  2  0
 14 15  1  0
 15 16  2  0
 16 11  1  0
 14 17  1  0
 18 17  1  1
 18 19  1  0
 19 20  1  0
 19 21  2  0
 20 22  1  0
 18 23  1  0
 23 24  1  0
 24 25  1  0
M  STY  2   1 SUP   2 SUP
M  SLB  2   1   1   2   2
M  SAL   1  2  26  27
M  SBL   1  1   2
M  SMT   1 OCH3
M  SBV   1   2    0.7144    0.4125
M  SAL   2  2  28  29
M  SBL   2  1   4
M  SMT   2 OCH3
M  SBV   2   4   -0.7144   -0.4125
M  END
$$$$
