
     RDKit          3D

 29 30  0  2  0  0  0  0  0  0999 V2000
   16.9942   10.3710  -11.7283 C   0  0  0  0  0  0  0  0  0  0  0  0
   16.3378    9.1706  -11.8546 C   0  0  0  0  0  0  0  0  0  0  0  0
   16.1908    8.3557  -10.7634 C   0  0  0  0  0  0  0  0  0  0  0  0
   16.6825    8.6813   -9.4930 C   0  0  0  0  0  0  0  0  0  0  0  0
   17.3287    9.8878   -9.4191 C   0  0  0  0  0  0  0  0  0  0  0  0
   17.4954   10.7409  -10.5110 C   0  0  0  0  0  0  0  0  0  0  0  0
   16.4826    7.7612   -8.3952 C   0  0  0  0  0  0  0  0  0  0  0  0
   16.7451    7.9667   -6.9760 C   0  0  0  0  0  0  0  0  0  0  0  0
   16.0081    6.5910   -8.6806 O   0  0  0  0  0  0  0  0  0  0  0  0
   16.9068    6.8488   -6.1808 O   0  0  0  0  0  0  0  0  0  0  0  0
   17.1930    7.0229   -4.8216 C   0  0  0  0  0  0  0  0  0  0  0  0
   18.2243    7.8061   -4.4007 C   0  0  0  0  0  0  0  0  0  0  0  0
   18.4833    7.9597   -3.0561 C   0  0  0  0  0  0  0  0  0  0  0  0
   17.7391    7.3500   -2.0734 C   0  0  0  0  0  0  0  0  0  0  0  0
   16.6950    6.5573   -2.5022 C   0  0  0  0  0  0  0  0  0  0  0  0
   16.4170    6.3892   -3.8556 C   0  0  0  0  0  0  0  0  0  0  0  0
   18.0429    7.5391   -0.6633 C   0  0  0  0  0  0  0  0  0  0  0  0
   17.4250    8.7476   -0.0153 C   0  0  1  0  0  0  0  0  0  0  0  0
   15.9769    8.8844   -0.2337 C   0  0  0  0  0  0  0  0  0  0  0  0
   15.0666    8.2668    0.6463 N   0  0  0  0  0  0  0  0  0  0  0  0
   15.5319    9.5446   -1.1943 O   0  0  0  0  0  0  0  0  0  0  0  0
   13.6995    7.9779    0.2451 C   0  0  0  0  0  0  0  0  0  0  0  0
   17.7851    8.8908    1.3165 O   0  0  0  0  0  0  0  0  0  0  0  0
   19.1285    9.0216    1.5319 C   0  0  0  0  0  0  0  0  0  0  0  0
   19.6808    7.6571    1.8909 C   0  0  0  0  0  0  0  0  0  0  0  0
   15.8047    8.7364  -13.0657 O   0  0  0  0  0  0  0  0  0  0  0  0
   15.6724    7.3904  -13.4202 C   0  0  0  0  0  0  0  0  0  0  0  0
   15.4906    7.9391    1.8967 O   0  0  0  0  0  0  0  0  0  0  0  0
   15.5083    9.0428    2.7384 C   0  0  0  0  0  0  0  0  0  0  0  0
 26 27  1  0
  2 26  1  0
 28 29  1  0
 20 28  1  0
  1  2  2  0
  2  3  1  0
  3  4  2  0
  4  5  1  0
  5  6  2  0
  6  1  1  0
  4  7  1  0
  7  8  1  0
  7  9  2  0
  8 10  1  0
 10 11  1  0
 11 12  2  0
 12 13  1  0
 13 14  2  0
 14 15  1  0
 15 16  2  0
 16 11  1  0
 14 17  1  0
 18 17  1  1
 18 19  1  0
 19 20  1  0
 19 21  2  0
 20 22  1  0
 18 23  1  0
 23 24  1  0
 24 25  1  0
M  STY  2   1 SUP   2 SUP
M  SLB  2   1   1   2   2
M  SAL   1  2  26  27
M  SBL   1  1   2
M  SMT   1 OCH3
M  SBV   1   2    0.7144    0.4125
M  SAL   2  2  28  29
M  SBL   2  1   4
M  SMT   2 OCH3
M  SBV   2   4   -0.7144   -0.4125
M  END
$$$$
