
     RDKit          3D

 29 30  0  2  0  0  0  0  0  0999 V2000
   19.8822    5.9403    5.4880 C   0  0  0  0  0  0  0  0  0  0  0  0
   19.3828    4.7123    5.1267 C   0  0  0  0  0  0  0  0  0  0  0  0
   19.0195    4.4796    3.8266 C   0  0  0  0  0  0  0  0  0  0  0  0
   19.1295    5.4438    2.8168 C   0  0  0  0  0  0  0  0  0  0  0  0
   19.6325    6.6509    3.2274 C   0  0  0  0  0  0  0  0  0  0  0  0
   20.0118    6.9203    4.5432 C   0  0  0  0  0  0  0  0  0  0  0  0
   18.7220    5.1126    1.4691 C   0  0  0  0  0  0  0  0  0  0  0  0
   18.5339    6.0030    0.3302 C   0  0  0  0  0  0  0  0  0  0  0  0
   18.4857    3.8664    1.2101 O   0  0  0  0  0  0  0  0  0  0  0  0
   18.2937    5.4308   -0.9039 O   0  0  0  0  0  0  0  0  0  0  0  0
   18.2710    6.2534   -2.0364 C   0  0  0  0  0  0  0  0  0  0  0  0
   18.2945    5.7388   -3.2969 C   0  0  0  0  0  0  0  0  0  0  0  0
   18.2712    6.5722   -4.3939 C   0  0  0  0  0  0  0  0  0  0  0  0
   18.2239    7.9430   -4.2948 C   0  0  0  0  0  0  0  0  0  0  0  0
   18.2003    8.4619   -3.0171 C   0  0  0  0  0  0  0  0  0  0  0  0
   18.2232    7.6372   -1.8962 C   0  0  0  0  0  0  0  0  0  0  0  0
   18.1983    8.7894   -5.4778 C   0  0  0  0  0  0  0  0  0  0  0  0
   16.9063    8.8018   -6.2478 C   0  0  1  0  0  0  0  0  0  0  0  0
   15.7697    9.3913   -5.5242 C   0  0  0  0  0  0  0  0  0  0  0  0
   14.5748    8.6618   -5.3675 N   0  0  0  0  0  0  0  0  0  0  0  0
   15.8421   10.5389   -5.0400 O   0  0  0  0  0  0  0  0  0  0  0  0
   13.3017    9.1784   -5.8426 C   0  0  0  0  0  0  0  0  0  0  0  0
   17.0471    9.3054   -7.5325 O   0  0  0  0  0  0  0  0  0  0  0  0
   16.4143    8.5782   -8.5014 C   0  0  0  0  0  0  0  0  0  0  0  0
   15.1661    9.3320   -8.9132 C   0  0  0  0  0  0  0  0  0  0  0  0
   19.2262    3.6732    6.0406 O   0  0  0  0  0  0  0  0  0  0  0  0
   19.3444    2.3201    5.7087 C   0  0  0  0  0  0  0  0  0  0  0  0
   14.6290    7.4479   -4.7558 O   0  0  0  0  0  0  0  0  0  0  0  0
   15.0677    7.5538   -3.4430 C   0  0  0  0  0  0  0  0  0  0  0  0
 26 27  1  0
  2 26  1  0
 28 29  1  0
 20 28  1  0
  1  2  2  0
  2  3  1  0
  3  4  2  0
  4  5  1  0
  5  6  2  0
  6  1  1  0
  4  7  1  0
  7  8  1  0
  7  9  2  0
  8 10  1  0
 10 11  1  0
 11 12  2  0
 12 13  1  0
 13 14  2  0
 14 15  1  0
 15 16  2  0
 16 11  1  0
 14 17  1  0
 18 17  1  1
 18 19  1  0
 19 20  1  0
 19 21  2  0
 20 22  1  0
 18 23  1  0
 23 24  1  0
 24 25  1  0
M  STY  2   1 SUP   2 SUP
M  SLB  2   1   1   2   2
M  SAL   1  2  26  27
M  SBL   1  1   2
M  SMT   1 OCH3
M  SBV   1   2    0.7144    0.4125
M  SAL   2  2  28  29
M  SBL   2  1   4
M  SMT   2 OCH3
M  SBV   2   4   -0.7144   -0.4125
M  END
$$$$
