
     RDKit          3D

 29 30  0  2  0  0  0  0  0  0999 V2000
   18.7298    4.1649    6.5960 C   0  0  0  0  0  0  0  0  0  0  0  0
   19.1728    2.9863    6.0458 C   0  0  0  0  0  0  0  0  0  0  0  0
   19.2877    2.8694    4.6859 C   0  0  0  0  0  0  0  0  0  0  0  0
   18.9725    3.9066    3.7990 C   0  0  0  0  0  0  0  0  0  0  0  0
   18.5357    5.0603    4.3963 C   0  0  0  0  0  0  0  0  0  0  0  0
   18.4073    5.2120    5.7778 C   0  0  0  0  0  0  0  0  0  0  0  0
   19.1234    3.6966    2.3759 C   0  0  0  0  0  0  0  0  0  0  0  0
   18.7437    4.5801    1.2802 C   0  0  0  0  0  0  0  0  0  0  0  0
   19.6648    2.5843    1.9944 O   0  0  0  0  0  0  0  0  0  0  0  0
   19.6572    4.7760    0.2626 O   0  0  0  0  0  0  0  0  0  0  0  0
   19.3528    5.6927   -0.7505 C   0  0  0  0  0  0  0  0  0  0  0  0
   19.1723    7.0167   -0.4888 C   0  0  0  0  0  0  0  0  0  0  0  0
   18.8733    7.8970   -1.5058 C   0  0  0  0  0  0  0  0  0  0  0  0
   18.7402    7.5105   -2.8188 C   0  0  0  0  0  0  0  0  0  0  0  0
   18.9234    6.1690   -3.0814 C   0  0  0  0  0  0  0  0  0  0  0  0
   19.2259    5.2638   -2.0684 C   0  0  0  0  0  0  0  0  0  0  0  0
   18.4259    8.4713   -3.8651 C   0  0  0  0  0  0  0  0  0  0  0  0
   17.0096    8.4507   -4.3707 C   0  0  1  0  0  0  0  0  0  0  0  0
   16.0070    8.9106   -3.3979 C   0  0  0  0  0  0  0  0  0  0  0  0
   14.6661    8.4940   -3.5122 N   0  0  0  0  0  0  0  0  0  0  0  0
   16.3229    9.6719   -2.4613 O   0  0  0  0  0  0  0  0  0  0  0  0
   13.6484    8.9448   -2.5771 C   0  0  0  0  0  0  0  0  0  0  0  0
   16.8700    9.0513   -5.6133 O   0  0  0  0  0  0  0  0  0  0  0  0
   16.9990   10.4120   -5.6055 C   0  0  0  0  0  0  0  0  0  0  0  0
   18.4670   10.7447   -5.7787 C   0  0  0  0  0  0  0  0  0  0  0  0
   19.5169    1.8836    6.8237 O   0  0  0  0  0  0  0  0  0  0  0  0
   20.1349    0.7361    6.3175 C   0  0  0  0  0  0  0  0  0  0  0  0
   14.3309    7.6506   -4.5256 O   0  0  0  0  0  0  0  0  0  0  0  0
   13.5794    8.2926   -5.5003 C   0  0  0  0  0  0  0  0  0  0  0  0
 26 27  1  0
  2 26  1  0
 28 29  1  0
 20 28  1  0
  1  2  2  0
  2  3  1  0
  3  4  2  0
  4  5  1  0
  5  6  2  0
  6  1  1  0
  4  7  1  0
  7  8  1  0
  7  9  2  0
  8 10  1  0
 10 11  1  0
 11 12  2  0
 12 13  1  0
 13 14  2  0
 14 15  1  0
 15 16  2  0
 16 11  1  0
 14 17  1  0
 18 17  1  1
 18 19  1  0
 19 20  1  0
 19 21  2  0
 20 22  1  0
 18 23  1  0
 23 24  1  0
 24 25  1  0
M  STY  2   1 SUP   2 SUP
M  SLB  2   1   1   2   2
M  SAL   1  2  26  27
M  SBL   1  1   2
M  SMT   1 OCH3
M  SBV   1   2    0.7144    0.4125
M  SAL   2  2  28  29
M  SBL   2  1   4
M  SMT   2 OCH3
M  SBV   2   4   -0.7144   -0.4125
M  END
$$$$
