
     RDKit          3D

 29 30  0  2  0  0  0  0  0  0999 V2000
   17.0481    3.5990    4.9004 C   0  0  0  0  0  0  0  0  0  0  0  0
   18.3131    3.2580    4.4865 C   0  0  0  0  0  0  0  0  0  0  0  0
   18.7278    3.5834    3.2222 C   0  0  0  0  0  0  0  0  0  0  0  0
   17.9182    4.2609    2.3017 C   0  0  0  0  0  0  0  0  0  0  0  0
   16.6669    4.5785    2.7620 C   0  0  0  0  0  0  0  0  0  0  0  0
   16.2137    4.2617    4.0434 C   0  0  0  0  0  0  0  0  0  0  0  0
   18.4370    4.5648    0.9862 C   0  0  0  0  0  0  0  0  0  0  0  0
   18.1166    5.6925    0.1196 C   0  0  0  0  0  0  0  0  0  0  0  0
   19.3033    3.7433    0.4857 O   0  0  0  0  0  0  0  0  0  0  0  0
   18.9534    5.9422   -0.9508 O   0  0  0  0  0  0  0  0  0  0  0  0
   18.3864    6.2289   -2.1982 C   0  0  0  0  0  0  0  0  0  0  0  0
   19.1543    6.4550   -3.2998 C   0  0  0  0  0  0  0  0  0  0  0  0
   18.5693    6.7351   -4.5154 C   0  0  0  0  0  0  0  0  0  0  0  0
   17.2076    6.8038   -4.6957 C   0  0  0  0  0  0  0  0  0  0  0  0
   16.4320    6.5745   -3.5785 C   0  0  0  0  0  0  0  0  0  0  0  0
   17.0035    6.2901   -2.3417 C   0  0  0  0  0  0  0  0  0  0  0  0
   16.6278    7.1001   -5.9967 C   0  0  0  0  0  0  0  0  0  0  0  0
   16.6208    8.5499   -6.3969 C   0  0  1  0  0  0  0  0  0  0  0  0
   15.4917    8.9414   -7.2543 C   0  0  0  0  0  0  0  0  0  0  0  0
   15.7068    9.2478   -8.6124 N   0  0  0  0  0  0  0  0  0  0  0  0
   14.3323    9.0088   -6.7984 O   0  0  0  0  0  0  0  0  0  0  0  0
   14.5985    9.4987   -9.5191 C   0  0  0  0  0  0  0  0  0  0  0  0
   16.8052    9.4083   -5.3231 O   0  0  0  0  0  0  0  0  0  0  0  0
   16.3139   10.6697   -5.5120 C   0  0  0  0  0  0  0  0  0  0  0  0
   14.8138   10.6248   -5.3034 C   0  0  0  0  0  0  0  0  0  0  0  0
   19.2104    2.5832    5.3105 O   0  0  0  0  0  0  0  0  0  0  0  0
   19.1848    2.6479    6.7070 C   0  0  0  0  0  0  0  0  0  0  0  0
   16.9860    9.3069   -9.0714 O   0  0  0  0  0  0  0  0  0  0  0  0
   17.3215   10.5863   -9.4930 C   0  0  0  0  0  0  0  0  0  0  0  0
 26 27  1  0
  2 26  1  0
 28 29  1  0
 20 28  1  0
  1  2  2  0
  2  3  1  0
  3  4  2  0
  4  5  1  0
  5  6  2  0
  6  1  1  0
  4  7  1  0
  7  8  1  0
  7  9  2  0
  8 10  1  0
 10 11  1  0
 11 12  2  0
 12 13  1  0
 13 14  2  0
 14 15  1  0
 15 16  2  0
 16 11  1  0
 14 17  1  0
 18 17  1  1
 18 19  1  0
 19 20  1  0
 19 21  2  0
 20 22  1  0
 18 23  1  0
 23 24  1  0
 24 25  1  0
M  STY  2   1 SUP   2 SUP
M  SLB  2   1   1   2   2
M  SAL   1  2  26  27
M  SBL   1  1   2
M  SMT   1 OCH3
M  SBV   1   2    0.7144    0.4125
M  SAL   2  2  28  29
M  SBL   2  1   4
M  SMT   2 OCH3
M  SBV   2   4   -0.7144   -0.4125
M  END
$$$$
