
     RDKit          3D

 29 30  0  2  0  0  0  0  0  0999 V2000
   23.7311    6.6609    2.0745 C   0  0  0  0  0  0  0  0  0  0  0  0
   22.6796    7.3436    1.5121 C   0  0  0  0  0  0  0  0  0  0  0  0
   21.3985    6.8952    1.6969 C   0  0  0  0  0  0  0  0  0  0  0  0
   21.0880    5.7522    2.4446 C   0  0  0  0  0  0  0  0  0  0  0  0
   22.1703    5.1072    2.9842 C   0  0  0  0  0  0  0  0  0  0  0  0
   23.4871    5.5376    2.8150 C   0  0  0  0  0  0  0  0  0  0  0  0
   19.7062    5.3498    2.5886 C   0  0  0  0  0  0  0  0  0  0  0  0
   18.9887    4.2915    1.8883 C   0  0  0  0  0  0  0  0  0  0  0  0
   18.9858    5.9981    3.4468 O   0  0  0  0  0  0  0  0  0  0  0  0
   17.6268    4.4419    1.7123 O   0  0  0  0  0  0  0  0  0  0  0  0
   17.1616    5.0675    0.5496 C   0  0  0  0  0  0  0  0  0  0  0  0
   17.9920    5.3575   -0.4898 C   0  0  0  0  0  0  0  0  0  0  0  0
   17.5069    5.9739   -1.6226 C   0  0  0  0  0  0  0  0  0  0  0  0
   16.1874    6.3290   -1.7779 C   0  0  0  0  0  0  0  0  0  0  0  0
   15.3482    6.0343   -0.7237 C   0  0  0  0  0  0  0  0  0  0  0  0
   15.8186    5.4121    0.4290 C   0  0  0  0  0  0  0  0  0  0  0  0
   15.7130    6.9767   -2.9911 C   0  0  0  0  0  0  0  0  0  0  0  0
   16.1392    8.4065   -3.1811 C   0  0  1  0  0  0  0  0  0  0  0  0
   15.6914    9.0149   -4.4430 C   0  0  0  0  0  0  0  0  0  0  0  0
   16.5841    9.1379   -5.5258 N   0  0  0  0  0  0  0  0  0  0  0  0
   14.5224    9.4298   -4.5767 O   0  0  0  0  0  0  0  0  0  0  0  0
   16.1750    9.7437   -6.7824 C   0  0  0  0  0  0  0  0  0  0  0  0
   15.8741    9.2014   -2.0757 O   0  0  0  0  0  0  0  0  0  0  0  0
   16.9215    9.9802   -1.6702 C   0  0  0  0  0  0  0  0  0  0  0  0
   16.6635   11.3963   -2.1435 C   0  0  0  0  0  0  0  0  0  0  0  0
   22.8611    8.4935    0.7477 O   0  0  0  0  0  0  0  0  0  0  0  0
   24.1082    9.0753    0.5007 C   0  0  0  0  0  0  0  0  0  0  0  0
   17.8547    8.6750   -5.3775 O   0  0  0  0  0  0  0  0  0  0  0  0
   18.7942    9.6687   -5.6159 C   0  0  0  0  0  0  0  0  0  0  0  0
 26 27  1  0
  2 26  1  0
 28 29  1  0
 20 28  1  0
  1  2  2  0
  2  3  1  0
  3  4  2  0
  4  5  1  0
  5  6  2  0
  6  1  1  0
  4  7  1  0
  7  8  1  0
  7  9  2  0
  8 10  1  0
 10 11  1  0
 11 12  2  0
 12 13  1  0
 13 14  2  0
 14 15  1  0
 15 16  2  0
 16 11  1  0
 14 17  1  0
 18 17  1  1
 18 19  1  0
 19 20  1  0
 19 21  2  0
 20 22  1  0
 18 23  1  0
 23 24  1  0
 24 25  1  0
M  STY  2   1 SUP   2 SUP
M  SLB  2   1   1   2   2
M  SAL   1  2  26  27
M  SBL   1  1   2
M  SMT   1 OCH3
M  SBV   1   2    0.7144    0.4125
M  SAL   2  2  28  29
M  SBL   2  1   4
M  SMT   2 OCH3
M  SBV   2   4   -0.7144   -0.4125
M  END
$$$$
