
     RDKit          3D

 29 30  0  2  0  0  0  0  0  0999 V2000
   19.4990    6.3956    2.9174 C   0  0  0  0  0  0  0  0  0  0  0  0
   20.3012    5.7024    2.0435 C   0  0  0  0  0  0  0  0  0  0  0  0
   19.9679    5.6377    0.7165 C   0  0  0  0  0  0  0  0  0  0  0  0
   18.8280    6.2522    0.1828 C   0  0  0  0  0  0  0  0  0  0  0  0
   18.0612    6.9307    1.0941 C   0  0  0  0  0  0  0  0  0  0  0  0
   18.3727    7.0158    2.4519 C   0  0  0  0  0  0  0  0  0  0  0  0
   18.5516    6.1329   -1.2318 C   0  0  0  0  0  0  0  0  0  0  0  0
   17.5872    6.8731   -2.0365 C   0  0  0  0  0  0  0  0  0  0  0  0
   19.2368    5.2602   -1.8987 O   0  0  0  0  0  0  0  0  0  0  0  0
   17.6540    6.7389   -3.4097 O   0  0  0  0  0  0  0  0  0  0  0  0
   17.0014    7.6819   -4.2126 C   0  0  0  0  0  0  0  0  0  0  0  0
   15.6590    7.6284   -4.4343 C   0  0  0  0  0  0  0  0  0  0  0  0
   15.0426    8.5700   -5.2292 C   0  0  0  0  0  0  0  0  0  0  0  0
   15.7212    9.6004   -5.8368 C   0  0  0  0  0  0  0  0  0  0  0  0
   17.0808    9.6525   -5.6107 C   0  0  0  0  0  0  0  0  0  0  0  0
   17.7222    8.7110   -4.8111 C   0  0  0  0  0  0  0  0  0  0  0  0
   15.0337   10.5769   -6.6675 C   0  0  0  0  0  0  0  0  0  0  0  0
   15.1141   10.3481   -8.1519 C   0  0  1  0  0  0  0  0  0  0  0  0
   14.7631    8.9855   -8.5798 C   0  0  0  0  0  0  0  0  0  0  0  0
   15.6061    8.2809   -9.4615 N   0  0  0  0  0  0  0  0  0  0  0  0
   13.7209    8.4331   -8.1732 O   0  0  0  0  0  0  0  0  0  0  0  0
   15.2535    6.9605   -9.9569 C   0  0  0  0  0  0  0  0  0  0  0  0
   14.4629   11.3283   -8.8863 O   0  0  0  0  0  0  0  0  0  0  0  0
   15.2927   12.2092   -9.5214 C   0  0  0  0  0  0  0  0  0  0  0  0
   15.6577   11.6211  -10.8693 C   0  0  0  0  0  0  0  0  0  0  0  0
   21.4609    5.0496    2.4542 O   0  0  0  0  0  0  0  0  0  0  0  0
   22.1913    4.1759    1.6430 C   0  0  0  0  0  0  0  0  0  0  0  0
   16.7734    8.8620   -9.8495 O   0  0  0  0  0  0  0  0  0  0  0  0
   17.8758    8.1337   -9.4235 C   0  0  0  0  0  0  0  0  0  0  0  0
 26 27  1  0
  2 26  1  0
 28 29  1  0
 20 28  1  0
  1  2  2  0
  2  3  1  0
  3  4  2  0
  4  5  1  0
  5  6  2  0
  6  1  1  0
  4  7  1  0
  7  8  1  0
  7  9  2  0
  8 10  1  0
 10 11  1  0
 11 12  2  0
 12 13  1  0
 13 14  2  0
 14 15  1  0
 15 16  2  0
 16 11  1  0
 14 17  1  0
 18 17  1  1
 18 19  1  0
 19 20  1  0
 19 21  2  0
 20 22  1  0
 18 23  1  0
 23 24  1  0
 24 25  1  0
M  STY  2   1 SUP   2 SUP
M  SLB  2   1   1   2   2
M  SAL   1  2  26  27
M  SBL   1  1   2
M  SMT   1 OCH3
M  SBV   1   2    0.7144    0.4125
M  SAL   2  2  28  29
M  SBL   2  1   4
M  SMT   2 OCH3
M  SBV   2   4   -0.7144   -0.4125
M  END
$$$$
