
     RDKit          3D

 29 30  0  2  0  0  0  0  0  0999 V2000
   20.0835    3.8137    7.0560 C   0  0  0  0  0  0  0  0  0  0  0  0
   19.9276    2.6330    6.3707 C   0  0  0  0  0  0  0  0  0  0  0  0
   19.6602    2.6544    5.0274 C   0  0  0  0  0  0  0  0  0  0  0  0
   19.5328    3.8390    4.2910 C   0  0  0  0  0  0  0  0  0  0  0  0
   19.6967    4.9885    5.0193 C   0  0  0  0  0  0  0  0  0  0  0  0
   19.9698    5.0014    6.3879 C   0  0  0  0  0  0  0  0  0  0  0  0
   19.2492    3.7693    2.8745 C   0  0  0  0  0  0  0  0  0  0  0  0
   18.9942    4.8610    1.9425 C   0  0  0  0  0  0  0  0  0  0  0  0
   19.2101    2.5935    2.3343 O   0  0  0  0  0  0  0  0  0  0  0  0
   18.7530    4.5387    0.6210 O   0  0  0  0  0  0  0  0  0  0  0  0
   18.5764    5.5738   -0.3048 C   0  0  0  0  0  0  0  0  0  0  0  0
   18.6253    6.8831    0.0658 C   0  0  0  0  0  0  0  0  0  0  0  0
   18.4479    7.8817   -0.8669 C   0  0  0  0  0  0  0  0  0  0  0  0
   18.2158    7.6325   -2.1992 C   0  0  0  0  0  0  0  0  0  0  0  0
   18.1667    6.3055   -2.5721 C   0  0  0  0  0  0  0  0  0  0  0  0
   18.3433    5.2822   -1.6455 C   0  0  0  0  0  0  0  0  0  0  0  0
   18.0358    8.7151   -3.1542 C   0  0  0  0  0  0  0  0  0  0  0  0
   16.6499    9.2934   -3.2369 C   0  0  1  0  0  0  0  0  0  0  0  0
   15.6392    8.3806   -3.7921 C   0  0  0  0  0  0  0  0  0  0  0  0
   15.4731    8.2719   -5.1868 N   0  0  0  0  0  0  0  0  0  0  0  0
   14.9163    7.6915   -3.0444 O   0  0  0  0  0  0  0  0  0  0  0  0
   14.4983    7.3628   -5.7670 C   0  0  0  0  0  0  0  0  0  0  0  0
   16.2428    9.8933   -2.0543 O   0  0  0  0  0  0  0  0  0  0  0  0
   15.4683   11.0075   -2.2184 C   0  0  0  0  0  0  0  0  0  0  0  0
   14.0489   10.6543   -1.8230 C   0  0  0  0  0  0  0  0  0  0  0  0
   20.0312    1.3911    6.9924 O   0  0  0  0  0  0  0  0  0  0  0  0
   20.4866    0.2351    6.3512 C   0  0  0  0  0  0  0  0  0  0  0  0
   16.2496    9.0414   -5.9965 O   0  0  0  0  0  0  0  0  0  0  0  0
   17.4443    8.4097   -6.3136 C   0  0  0  0  0  0  0  0  0  0  0  0
 26 27  1  0
  2 26  1  0
 28 29  1  0
 20 28  1  0
  1  2  2  0
  2  3  1  0
  3  4  2  0
  4  5  1  0
  5  6  2  0
  6  1  1  0
  4  7  1  0
  7  8  1  0
  7  9  2  0
  8 10  1  0
 10 11  1  0
 11 12  2  0
 12 13  1  0
 13 14  2  0
 14 15  1  0
 15 16  2  0
 16 11  1  0
 14 17  1  0
 18 17  1  1
 18 19  1  0
 19 20  1  0
 19 21  2  0
 20 22  1  0
 18 23  1  0
 23 24  1  0
 24 25  1  0
M  STY  2   1 SUP   2 SUP
M  SLB  2   1   1   2   2
M  SAL   1  2  26  27
M  SBL   1  1   2
M  SMT   1 OCH3
M  SBV   1   2    0.7144    0.4125
M  SAL   2  2  28  29
M  SBL   2  1   4
M  SMT   2 OCH3
M  SBV   2   4   -0.7144   -0.4125
M  END
$$$$
