
     RDKit          3D

 29 30  0  2  0  0  0  0  0  0999 V2000
   19.5369    5.6889   -2.0370 C   0  0  0  0  0  0  0  0  0  0  0  0
   18.8082    6.6338   -2.7180 C   0  0  0  0  0  0  0  0  0  0  0  0
   17.9126    7.4208   -2.0436 C   0  0  0  0  0  0  0  0  0  0  0  0
   17.6892    7.3173   -0.6648 C   0  0  0  0  0  0  0  0  0  0  0  0
   18.4396    6.3610   -0.0315 C   0  0  0  0  0  0  0  0  0  0  0  0
   19.3600    5.5434   -0.6888 C   0  0  0  0  0  0  0  0  0  0  0  0
   16.7236    8.1892   -0.0328 C   0  0  0  0  0  0  0  0  0  0  0  0
   15.3274    7.9199    0.2887 C   0  0  0  0  0  0  0  0  0  0  0  0
   17.1243    9.3734    0.3033 O   0  0  0  0  0  0  0  0  0  0  0  0
   14.5997    8.9241    0.8971 O   0  0  0  0  0  0  0  0  0  0  0  0
   13.9194    9.8465    0.0933 C   0  0  0  0  0  0  0  0  0  0  0  0
   13.9581    9.7784   -1.2661 C   0  0  0  0  0  0  0  0  0  0  0  0
   13.2788   10.6999   -2.0329 C   0  0  0  0  0  0  0  0  0  0  0  0
   12.5353   11.7236   -1.4937 C   0  0  0  0  0  0  0  0  0  0  0  0
   12.4977   11.7904   -0.1166 C   0  0  0  0  0  0  0  0  0  0  0  0
   13.1769   10.8695    0.6756 C   0  0  0  0  0  0  0  0  0  0  0  0
   11.8299   12.6759   -2.3375 C   0  0  0  0  0  0  0  0  0  0  0  0
   12.6553   13.3479   -3.4002 C   0  0  1  0  0  0  0  0  0  0  0  0
   11.8864   14.1891   -4.3300 C   0  0  0  0  0  0  0  0  0  0  0  0
   12.4587   14.6032   -5.5488 N   0  0  0  0  0  0  0  0  0  0  0  0
   10.7229   14.5485   -4.0586 O   0  0  0  0  0  0  0  0  0  0  0  0
   11.6839   15.3241   -6.5454 C   0  0  0  0  0  0  0  0  0  0  0  0
   13.7736   13.9910   -2.8905 O   0  0  0  0  0  0  0  0  0  0  0  0
   13.5036   15.1342   -2.1917 C   0  0  0  0  0  0  0  0  0  0  0  0
   12.1229   14.9965   -1.5829 C   0  0  0  0  0  0  0  0  0  0  0  0
   18.9417    6.8315   -4.0901 O   0  0  0  0  0  0  0  0  0  0  0  0
   18.2275    7.7932   -4.8112 C   0  0  0  0  0  0  0  0  0  0  0  0
   13.7671   14.3149   -5.7845 O   0  0  0  0  0  0  0  0  0  0  0  0
   13.9389   13.6653   -6.9993 C   0  0  0  0  0  0  0  0  0  0  0  0
 26 27  1  0
  2 26  1  0
 28 29  1  0
 20 28  1  0
  1  2  2  0
  2  3  1  0
  3  4  2  0
  4  5  1  0
  5  6  2  0
  6  1  1  0
  4  7  1  0
  7  8  1  0
  7  9  2  0
  8 10  1  0
 10 11  1  0
 11 12  2  0
 12 13  1  0
 13 14  2  0
 14 15  1  0
 15 16  2  0
 16 11  1  0
 14 17  1  0
 18 17  1  1
 18 19  1  0
 19 20  1  0
 19 21  2  0
 20 22  1  0
 18 23  1  0
 23 24  1  0
 24 25  1  0
M  STY  2   1 SUP   2 SUP
M  SLB  2   1   1   2   2
M  SAL   1  2  26  27
M  SBL   1  1   2
M  SMT   1 OCH3
M  SBV   1   2    0.7144    0.4125
M  SAL   2  2  28  29
M  SBL   2  1   4
M  SMT   2 OCH3
M  SBV   2   4   -0.7144   -0.4125
M  END
$$$$
