
     RDKit          3D

 29 30  0  2  0  0  0  0  0  0999 V2000
   22.2733    5.1487    4.3769 C   0  0  0  0  0  0  0  0  0  0  0  0
   21.2516    4.2328    4.3053 C   0  0  0  0  0  0  0  0  0  0  0  0
   20.4283    4.2137    3.2108 C   0  0  0  0  0  0  0  0  0  0  0  0
   20.5691    5.0953    2.1315 C   0  0  0  0  0  0  0  0  0  0  0  0
   21.6017    5.9886    2.2505 C   0  0  0  0  0  0  0  0  0  0  0  0
   22.4582    6.0344    3.3516 C   0  0  0  0  0  0  0  0  0  0  0  0
   19.6542    5.0051    1.0150 C   0  0  0  0  0  0  0  0  0  0  0  0
   19.8342    5.4838   -0.3502 C   0  0  0  0  0  0  0  0  0  0  0  0
   18.5152    4.4271    1.2263 O   0  0  0  0  0  0  0  0  0  0  0  0
   18.8406    5.2049   -1.2685 O   0  0  0  0  0  0  0  0  0  0  0  0
   18.2732    6.2613   -1.9908 C   0  0  0  0  0  0  0  0  0  0  0  0
   16.9335    6.5043   -1.9723 C   0  0  0  0  0  0  0  0  0  0  0  0
   16.4019    7.5515   -2.6931 C   0  0  0  0  0  0  0  0  0  0  0  0
   17.1659    8.4000   -3.4596 C   0  0  0  0  0  0  0  0  0  0  0  0
   18.5225    8.1518   -3.4767 C   0  0  0  0  0  0  0  0  0  0  0  0
   19.0790    7.0993   -2.7558 C   0  0  0  0  0  0  0  0  0  0  0  0
   16.5671    9.4966   -4.2049 C   0  0  0  0  0  0  0  0  0  0  0  0
   16.1185    9.1716   -5.6031 C   0  0  1  0  0  0  0  0  0  0  0  0
   14.7303    9.5536   -5.9036 C   0  0  0  0  0  0  0  0  0  0  0  0
   14.1674   10.7009   -5.3108 N   0  0  0  0  0  0  0  0  0  0  0  0
   14.0315    8.8741   -6.6824 O   0  0  0  0  0  0  0  0  0  0  0  0
   12.7359   10.9510   -5.3495 C   0  0  0  0  0  0  0  0  0  0  0  0
   17.0160    9.5964   -6.5717 O   0  0  0  0  0  0  0  0  0  0  0  0
   16.8291    9.0378   -7.8050 C   0  0  0  0  0  0  0  0  0  0  0  0
   18.1198    9.1820   -8.5855 C   0  0  0  0  0  0  0  0  0  0  0  0
   21.0107    3.3046    5.3153 O   0  0  0  0  0  0  0  0  0  0  0  0
   19.7778    2.6769    5.5178 C   0  0  0  0  0  0  0  0  0  0  0  0
   14.9946   11.5859   -4.6918 O   0  0  0  0  0  0  0  0  0  0  0  0
   15.3006   12.6630   -5.5124 C   0  0  0  0  0  0  0  0  0  0  0  0
 26 27  1  0
  2 26  1  0
 28 29  1  0
 20 28  1  0
  1  2  2  0
  2  3  1  0
  3  4  2  0
  4  5  1  0
  5  6  2  0
  6  1  1  0
  4  7  1  0
  7  8  1  0
  7  9  2  0
  8 10  1  0
 10 11  1  0
 11 12  2  0
 12 13  1  0
 13 14  2  0
 14 15  1  0
 15 16  2  0
 16 11  1  0
 14 17  1  0
 18 17  1  1
 18 19  1  0
 19 20  1  0
 19 21  2  0
 20 22  1  0
 18 23  1  0
 23 24  1  0
 24 25  1  0
M  STY  2   1 SUP   2 SUP
M  SLB  2   1   1   2   2
M  SAL   1  2  26  27
M  SBL   1  1   2
M  SMT   1 OCH3
M  SBV   1   2    0.7144    0.4125
M  SAL   2  2  28  29
M  SBL   2  1   4
M  SMT   2 OCH3
M  SBV   2   4   -0.7144   -0.4125
M  END
$$$$
