
     RDKit          3D

 29 30  0  2  0  0  0  0  0  0999 V2000
   19.4944    8.3883    3.3402 C   0  0  0  0  0  0  0  0  0  0  0  0
   19.1147    7.0767    3.1875 C   0  0  0  0  0  0  0  0  0  0  0  0
   18.6249    6.6444    1.9836 C   0  0  0  0  0  0  0  0  0  0  0  0
   18.4842    7.4813    0.8693 C   0  0  0  0  0  0  0  0  0  0  0  0
   18.8763    8.7788    1.0724 C   0  0  0  0  0  0  0  0  0  0  0  0
   19.3791    9.2511    2.2856 C   0  0  0  0  0  0  0  0  0  0  0  0
   17.9576    6.9409   -0.3646 C   0  0  0  0  0  0  0  0  0  0  0  0
   17.9731    7.5322   -1.6971 C   0  0  0  0  0  0  0  0  0  0  0  0
   17.3911    5.7782   -0.3091 O   0  0  0  0  0  0  0  0  0  0  0  0
   17.4060    6.8113   -2.7300 O   0  0  0  0  0  0  0  0  0  0  0  0
   17.4836    7.3214   -4.0313 C   0  0  0  0  0  0  0  0  0  0  0  0
   18.1798    8.4564   -4.3161 C   0  0  0  0  0  0  0  0  0  0  0  0
   18.2394    8.9360   -5.6064 C   0  0  0  0  0  0  0  0  0  0  0  0
   17.6174    8.3191   -6.6665 C   0  0  0  0  0  0  0  0  0  0  0  0
   16.9128    7.1697   -6.3755 C   0  0  0  0  0  0  0  0  0  0  0  0
   16.8404    6.6690   -5.0789 C   0  0  0  0  0  0  0  0  0  0  0  0
   17.7059    8.8557   -8.0158 C   0  0  0  0  0  0  0  0  0  0  0  0
   16.4522    9.4893   -8.5533 C   0  0  1  0  0  0  0  0  0  0  0  0
   16.0366   10.7129   -7.8509 C   0  0  0  0  0  0  0  0  0  0  0  0
   15.0983   10.6435   -6.8025 N   0  0  0  0  0  0  0  0  0  0  0  0
   16.5035   11.8255   -8.1681 O   0  0  0  0  0  0  0  0  0  0  0  0
   14.8514   11.7782   -5.9280 C   0  0  0  0  0  0  0  0  0  0  0  0
   16.4703    9.6392   -9.9322 O   0  0  0  0  0  0  0  0  0  0  0  0
   15.9303    8.5924  -10.6256 C   0  0  0  0  0  0  0  0  0  0  0  0
   14.5402    8.9947  -11.0746 C   0  0  0  0  0  0  0  0  0  0  0  0
   19.2072    6.1488    4.2219 O   0  0  0  0  0  0  0  0  0  0  0  0
   18.5265    4.9275    4.2353 C   0  0  0  0  0  0  0  0  0  0  0  0
   14.4153    9.4819   -6.6163 O   0  0  0  0  0  0  0  0  0  0  0  0
   13.8718    9.0100   -7.8033 C   0  0  0  0  0  0  0  0  0  0  0  0
 26 27  1  0
  2 26  1  0
 28 29  1  0
 20 28  1  0
  1  2  2  0
  2  3  1  0
  3  4  2  0
  4  5  1  0
  5  6  2  0
  6  1  1  0
  4  7  1  0
  7  8  1  0
  7  9  2  0
  8 10  1  0
 10 11  1  0
 11 12  2  0
 12 13  1  0
 13 14  2  0
 14 15  1  0
 15 16  2  0
 16 11  1  0
 14 17  1  0
 18 17  1  1
 18 19  1  0
 19 20  1  0
 19 21  2  0
 20 22  1  0
 18 23  1  0
 23 24  1  0
 24 25  1  0
M  STY  2   1 SUP   2 SUP
M  SLB  2   1   1   2   2
M  SAL   1  2  26  27
M  SBL   1  1   2
M  SMT   1 OCH3
M  SBV   1   2    0.7144    0.4125
M  SAL   2  2  28  29
M  SBL   2  1   4
M  SMT   2 OCH3
M  SBV   2   4   -0.7144   -0.4125
M  END
$$$$
