
     RDKit          3D

 29 30  0  2  0  0  0  0  0  0999 V2000
   18.9122    4.7535    0.2716 C   0  0  0  0  0  0  0  0  0  0  0  0
   19.1933    5.7530   -0.6283 C   0  0  0  0  0  0  0  0  0  0  0  0
   18.1706    6.4540   -1.2103 C   0  0  0  0  0  0  0  0  0  0  0  0
   16.8196    6.2065   -0.9359 C   0  0  0  0  0  0  0  0  0  0  0  0
   16.5917    5.2010   -0.0328 C   0  0  0  0  0  0  0  0  0  0  0  0
   17.6105    4.4681    0.5778 C   0  0  0  0  0  0  0  0  0  0  0  0
   15.8031    6.9954   -1.5964 C   0  0  0  0  0  0  0  0  0  0  0  0
   15.6369    7.2573   -3.0209 C   0  0  0  0  0  0  0  0  0  0  0  0
   14.9077    7.5560   -0.8482 O   0  0  0  0  0  0  0  0  0  0  0  0
   15.1796    8.5048   -3.3989 O   0  0  0  0  0  0  0  0  0  0  0  0
   15.5959    9.0328   -4.6267 C   0  0  0  0  0  0  0  0  0  0  0  0
   16.7855    8.6846   -5.1904 C   0  0  0  0  0  0  0  0  0  0  0  0
   17.1702    9.2201   -6.4003 C   0  0  0  0  0  0  0  0  0  0  0  0
   16.4012   10.1179   -7.1029 C   0  0  0  0  0  0  0  0  0  0  0  0
   15.1968   10.4690   -6.5299 C   0  0  0  0  0  0  0  0  0  0  0  0
   14.7900    9.9396   -5.3087 C   0  0  0  0  0  0  0  0  0  0  0  0
   16.8416   10.6593   -8.3795 C   0  0  0  0  0  0  0  0  0  0  0  0
   16.1957   10.0663   -9.6015 C   0  0  1  0  0  0  0  0  0  0  0  0
   14.7764   10.4127   -9.7713 C   0  0  0  0  0  0  0  0  0  0  0  0
   13.8293    9.4058  -10.0429 N   0  0  0  0  0  0  0  0  0  0  0  0
   14.3884   11.5948   -9.6788 O   0  0  0  0  0  0  0  0  0  0  0  0
   12.4231    9.7187  -10.2381 C   0  0  0  0  0  0  0  0  0  0  0  0
   16.9401   10.2618  -10.7554 O   0  0  0  0  0  0  0  0  0  0  0  0
   17.5398    9.1348  -11.2437 C   0  0  0  0  0  0  0  0  0  0  0  0
   18.9499    9.0777  -10.6921 C   0  0  0  0  0  0  0  0  0  0  0  0
   20.4969    6.0922   -0.9823 O   0  0  0  0  0  0  0  0  0  0  0  0
   20.8170    7.0016   -1.9949 C   0  0  0  0  0  0  0  0  0  0  0  0
   14.2550    8.1162  -10.1213 O   0  0  0  0  0  0  0  0  0  0  0  0
   14.6844    7.7943  -11.4015 C   0  0  0  0  0  0  0  0  0  0  0  0
 26 27  1  0
  2 26  1  0
 28 29  1  0
 20 28  1  0
  1  2  2  0
  2  3  1  0
  3  4  2  0
  4  5  1  0
  5  6  2  0
  6  1  1  0
  4  7  1  0
  7  8  1  0
  7  9  2  0
  8 10  1  0
 10 11  1  0
 11 12  2  0
 12 13  1  0
 13 14  2  0
 14 15  1  0
 15 16  2  0
 16 11  1  0
 14 17  1  0
 18 17  1  1
 18 19  1  0
 19 20  1  0
 19 21  2  0
 20 22  1  0
 18 23  1  0
 23 24  1  0
 24 25  1  0
M  STY  2   1 SUP   2 SUP
M  SLB  2   1   1   2   2
M  SAL   1  2  26  27
M  SBL   1  1   2
M  SMT   1 OCH3
M  SBV   1   2    0.7144    0.4125
M  SAL   2  2  28  29
M  SBL   2  1   4
M  SMT   2 OCH3
M  SBV   2   4   -0.7144   -0.4125
M  END
$$$$
