
     RDKit          3D

 29 30  0  2  0  0  0  0  0  0999 V2000
   16.3837    6.5806    0.8741 C   0  0  0  0  0  0  0  0  0  0  0  0
   17.7040    6.9586    0.9162 C   0  0  0  0  0  0  0  0  0  0  0  0
   18.3336    7.3658   -0.2302 C   0  0  0  0  0  0  0  0  0  0  0  0
   17.6952    7.4216   -1.4756 C   0  0  0  0  0  0  0  0  0  0  0  0
   16.3803    7.0349   -1.4650 C   0  0  0  0  0  0  0  0  0  0  0  0
   15.7098    6.6150   -0.3152 C   0  0  0  0  0  0  0  0  0  0  0  0
   18.4365    7.8641   -2.6360 C   0  0  0  0  0  0  0  0  0  0  0  0
   18.2437    7.4971   -4.0337 C   0  0  0  0  0  0  0  0  0  0  0  0
   19.4067    8.6980   -2.4378 O   0  0  0  0  0  0  0  0  0  0  0  0
   18.6323    8.4053   -4.9993 O   0  0  0  0  0  0  0  0  0  0  0  0
   17.9588    8.4154   -6.2265 C   0  0  0  0  0  0  0  0  0  0  0  0
   16.6664    8.0017   -6.3383 C   0  0  0  0  0  0  0  0  0  0  0  0
   16.0279    8.0224   -7.5592 C   0  0  0  0  0  0  0  0  0  0  0  0
   16.6344    8.4503   -8.7169 C   0  0  0  0  0  0  0  0  0  0  0  0
   17.9435    8.8688   -8.6010 C   0  0  0  0  0  0  0  0  0  0  0  0
   18.6061    8.8557   -7.3771 C   0  0  0  0  0  0  0  0  0  0  0  0
   15.9252    8.4593   -9.9871 C   0  0  0  0  0  0  0  0  0  0  0  0
   15.7989    9.7993  -10.6584 C   0  0  1  0  0  0  0  0  0  0  0  0
   15.0017    9.7905  -11.8944 C   0  0  0  0  0  0  0  0  0  0  0  0
   15.6400    9.8411  -13.1492 N   0  0  0  0  0  0  0  0  0  0  0  0
   13.7557    9.7386  -11.8546 O   0  0  0  0  0  0  0  0  0  0  0  0
   14.8898    9.7186  -14.3883 C   0  0  0  0  0  0  0  0  0  0  0  0
   15.4263   10.8094   -9.7839 O   0  0  0  0  0  0  0  0  0  0  0  0
   14.1297   11.2227   -9.9109 C   0  0  0  0  0  0  0  0  0  0  0  0
   13.9394   11.7424  -11.3214 C   0  0  0  0  0  0  0  0  0  0  0  0
   18.4457    6.9461    2.0949 O   0  0  0  0  0  0  0  0  0  0  0  0
   18.9810    8.0925    2.6900 C   0  0  0  0  0  0  0  0  0  0  0  0
   16.9894   10.0089  -13.1865 O   0  0  0  0  0  0  0  0  0  0  0  0
   17.3358   11.3330  -13.4188 C   0  0  0  0  0  0  0  0  0  0  0  0
 26 27  1  0
  2 26  1  0
 28 29  1  0
 20 28  1  0
  1  2  2  0
  2  3  1  0
  3  4  2  0
  4  5  1  0
  5  6  2  0
  6  1  1  0
  4  7  1  0
  7  8  1  0
  7  9  2  0
  8 10  1  0
 10 11  1  0
 11 12  2  0
 12 13  1  0
 13 14  2  0
 14 15  1  0
 15 16  2  0
 16 11  1  0
 14 17  1  0
 18 17  1  1
 18 19  1  0
 19 20  1  0
 19 21  2  0
 20 22  1  0
 18 23  1  0
 23 24  1  0
 24 25  1  0
M  STY  2   1 SUP   2 SUP
M  SLB  2   1   1   2   2
M  SAL   1  2  26  27
M  SBL   1  1   2
M  SMT   1 OCH3
M  SBV   1   2    0.7144    0.4125
M  SAL   2  2  28  29
M  SBL   2  1   4
M  SMT   2 OCH3
M  SBV   2   4   -0.7144   -0.4125
M  END
$$$$
