
     RDKit          3D

 29 30  0  2  0  0  0  0  0  0999 V2000
   14.8617   10.4671   -9.2268 C   0  0  0  0  0  0  0  0  0  0  0  0
   16.1416   10.0988   -9.5646 C   0  0  0  0  0  0  0  0  0  0  0  0
   16.9330    9.4622   -8.6456 C   0  0  0  0  0  0  0  0  0  0  0  0
   16.5045    9.1560   -7.3478 C   0  0  0  0  0  0  0  0  0  0  0  0
   15.2217    9.5435   -7.0600 C   0  0  0  0  0  0  0  0  0  0  0  0
   14.3898   10.1935   -7.9729 C   0  0  0  0  0  0  0  0  0  0  0  0
   17.4069    8.4813   -6.4410 C   0  0  0  0  0  0  0  0  0  0  0  0
   17.0853    7.6593   -5.2807 C   0  0  0  0  0  0  0  0  0  0  0  0
   18.6759    8.6060   -6.6647 O   0  0  0  0  0  0  0  0  0  0  0  0
   18.0702    6.8259   -4.7869 O   0  0  0  0  0  0  0  0  0  0  0  0
   18.1588    6.6317   -3.4034 C   0  0  0  0  0  0  0  0  0  0  0  0
   19.2671    6.9911   -2.6985 C   0  0  0  0  0  0  0  0  0  0  0  0
   19.3271    6.7882   -1.3370 C   0  0  0  0  0  0  0  0  0  0  0  0
   18.3009    6.2246   -0.6156 C   0  0  0  0  0  0  0  0  0  0  0  0
   17.1795    5.8614   -1.3317 C   0  0  0  0  0  0  0  0  0  0  0  0
   17.0992    6.0578   -2.7072 C   0  0  0  0  0  0  0  0  0  0  0  0
   18.4016    6.0290    0.8225 C   0  0  0  0  0  0  0  0  0  0  0  0
   17.5519    6.9364    1.6691 C   0  0  1  0  0  0  0  0  0  0  0  0
   17.9270    6.9738    3.0907 C   0  0  0  0  0  0  0  0  0  0  0  0
   17.9368    5.7885    3.8520 N   0  0  0  0  0  0  0  0  0  0  0  0
   18.2408    8.0471    3.6441 O   0  0  0  0  0  0  0  0  0  0  0  0
   18.8319    5.6211    4.9852 C   0  0  0  0  0  0  0  0  0  0  0  0
   17.3965    8.2003    1.1193 O   0  0  0  0  0  0  0  0  0  0  0  0
   16.1269    8.7011    1.1934 C   0  0  0  0  0  0  0  0  0  0  0  0
   15.8622    9.0966    2.6320 C   0  0  0  0  0  0  0  0  0  0  0  0
   16.6811   10.3485  -10.8240 O   0  0  0  0  0  0  0  0  0  0  0  0
   18.0238   10.1369  -11.1516 C   0  0  0  0  0  0  0  0  0  0  0  0
   17.0838    4.7865    3.5070 O   0  0  0  0  0  0  0  0  0  0  0  0
   15.8135    4.9916    4.0280 C   0  0  0  0  0  0  0  0  0  0  0  0
 26 27  1  0
  2 26  1  0
 28 29  1  0
 20 28  1  0
  1  2  2  0
  2  3  1  0
  3  4  2  0
  4  5  1  0
  5  6  2  0
  6  1  1  0
  4  7  1  0
  7  8  1  0
  7  9  2  0
  8 10  1  0
 10 11  1  0
 11 12  2  0
 12 13  1  0
 13 14  2  0
 14 15  1  0
 15 16  2  0
 16 11  1  0
 14 17  1  0
 18 17  1  6
 18 19  1  0
 19 20  1  0
 19 21  2  0
 20 22  1  0
 18 23  1  0
 23 24  1  0
 24 25  1  0
M  STY  2   1 SUP   2 SUP
M  SLB  2   1   1   2   2
M  SAL   1  2  26  27
M  SBL   1  1   2
M  SMT   1 OCH3
M  SBV   1   2    0.7144    0.4125
M  SAL   2  2  28  29
M  SBL   2  1   4
M  SMT   2 OCH3
M  SBV   2   4   -0.7144   -0.4125
M  END
$$$$
