
     RDKit          3D

 29 30  0  2  0  0  0  0  0  0999 V2000
   20.2559    5.3118    4.2904 C   0  0  0  0  0  0  0  0  0  0  0  0
   19.5593    4.2243    3.8213 C   0  0  0  0  0  0  0  0  0  0  0  0
   19.1546    4.1862    2.5133 C   0  0  0  0  0  0  0  0  0  0  0  0
   19.4151    5.2167    1.6010 C   0  0  0  0  0  0  0  0  0  0  0  0
   20.1121    6.2781    2.1170 C   0  0  0  0  0  0  0  0  0  0  0  0
   20.5387    6.3479    3.4441 C   0  0  0  0  0  0  0  0  0  0  0  0
   18.9503    5.0939    0.2369 C   0  0  0  0  0  0  0  0  0  0  0  0
   19.3110    5.8992   -0.9235 C   0  0  0  0  0  0  0  0  0  0  0  0
   18.0997    4.1518   -0.0175 O   0  0  0  0  0  0  0  0  0  0  0  0
   18.8283    5.5068   -2.1569 O   0  0  0  0  0  0  0  0  0  0  0  0
   18.2596    6.4713   -2.9972 C   0  0  0  0  0  0  0  0  0  0  0  0
   19.0129    7.4352   -3.5950 C   0  0  0  0  0  0  0  0  0  0  0  0
   18.4266    8.3723   -4.4175 C   0  0  0  0  0  0  0  0  0  0  0  0
   17.0778    8.3984   -4.6845 C   0  0  0  0  0  0  0  0  0  0  0  0
   16.3168    7.4210   -4.0778 C   0  0  0  0  0  0  0  0  0  0  0  0
   16.8899    6.4656   -3.2436 C   0  0  0  0  0  0  0  0  0  0  0  0
   16.4964    9.4035   -5.5611 C   0  0  0  0  0  0  0  0  0  0  0  0
   16.0876    8.9252   -6.9272 C   0  0  1  0  0  0  0  0  0  0  0  0
   15.5843    9.9811   -7.8187 C   0  0  0  0  0  0  0  0  0  0  0  0
   14.3653    9.8083   -8.5034 N   0  0  0  0  0  0  0  0  0  0  0  0
   16.2223   11.0404   -7.9837 O   0  0  0  0  0  0  0  0  0  0  0  0
   13.8315   10.8410   -9.3763 C   0  0  0  0  0  0  0  0  0  0  0  0
   17.0463    8.1234   -7.5288 O   0  0  0  0  0  0  0  0  0  0  0  0
   17.9562    8.7996   -8.2923 C   0  0  0  0  0  0  0  0  0  0  0  0
   17.6485    8.5168   -9.7488 C   0  0  0  0  0  0  0  0  0  0  0  0
   19.2400    3.1377    4.6317 O   0  0  0  0  0  0  0  0  0  0  0  0
   18.3450    2.1285    4.2637 C   0  0  0  0  0  0  0  0  0  0  0  0
   13.6834    8.6434   -8.3342 O   0  0  0  0  0  0  0  0  0  0  0  0
   14.4154    7.5508   -8.7786 C   0  0  0  0  0  0  0  0  0  0  0  0
 26 27  1  0
  2 26  1  0
 28 29  1  0
 20 28  1  0
  1  2  2  0
  2  3  1  0
  3  4  2  0
  4  5  1  0
  5  6  2  0
  6  1  1  0
  4  7  1  0
  7  8  1  0
  7  9  2  0
  8 10  1  0
 10 11  1  0
 11 12  2  0
 12 13  1  0
 13 14  2  0
 14 15  1  0
 15 16  2  0
 16 11  1  0
 14 17  1  0
 18 17  1  1
 18 19  1  0
 19 20  1  0
 19 21  2  0
 20 22  1  0
 18 23  1  0
 23 24  1  0
 24 25  1  0
M  STY  2   1 SUP   2 SUP
M  SLB  2   1   1   2   2
M  SAL   1  2  26  27
M  SBL   1  1   2
M  SMT   1 OCH3
M  SBV   1   2    0.7144    0.4125
M  SAL   2  2  28  29
M  SBL   2  1   4
M  SMT   2 OCH3
M  SBV   2   4   -0.7144   -0.4125
M  END
$$$$
